# svn $Id: Module.mk 995 2020-01-10 04:01:28Z arango $
#::::::::::::::::::::::::::::::::::::::::::::::::::::: Hernan G. Arango :::
# Copyright (c) 2002-2020 The ROMS/TOMS Group             Kate Hedstrom :::
#   Licensed under a MIT/X style license                                :::
#   See License_ROMS.txt                                                :::
#::::::::::::::::::::::::::::::::::::::::::::::::::::::::::::::::::::::::::

local_sub  := ROMS/Nonlinear/Sediment

local_lib  := libNLM_sed.a
local_src  := $(wildcard $(local_sub)/*.F)

$(eval $(call make-library,$(local_lib),$(local_src)))

$(eval $(compile-rules))
