 Coupled Input File name = coupling_inlet_test.in

 Model Coupling: 


       Ocean Model MPI nodes: 000 - 000

       Waves Model MPI nodes: 001 - 001

       WAVgrid 01 dt=  60.0 -to- OCNgrid 01 dt=  60.0, CplInt: 600.0 Steps: 010

       OCNgrid 01 dt=  60.0 -to- WAVgrid 01 dt=  60.0, CplInt: 600.0 Steps: 010
--------------------------------------------------------------------------------
 Model Input Parameters:  ROMS/TOMS version 3.7  
                          Thursday - August 30, 2018 -  3:28:32 PM
 --------------------------------------------------------------------------------

SWAN grid   1 is preparing computation


 Inlet Test Case

 Operating system : Linux
 CPU/hardware     : x86_64
 Compiler system  : gfortran
 Compiler command : /usr/lib64/openmpi/bin/mpif90
 Compiler flags   : -frepack-arrays -O3 -ftree-vectorize -ftree-loop-linear -funroll-loops -w -ffree-form -ffree-line-length-none -frecord-marker=4 -fconvert=big-endian -I/usr/incl

 Input Script  : 

 SVN Root URL  : https:://myroms.org/svn/src
 SVN Revision  : Unversioned directory

 Local Root    : /home/hadfield/ROMS/COAWST
 Header Dir    : /home/hadfield/ROMS/COAWST/Projects/Inlet_test/Coupled
 Header file   : inlet_test.h
 Analytical Dir: /home/hadfield/ROMS/COAWST/Projects/Inlet_test/Coupled

 Resolution, Grid 01: 0075x0070x008,  Parallel Nodes:   1,  Tiling: 001x001


 Physical Parameters, Grid: 01
 =============================

        720  ntimes            Number of timesteps for 3-D equations.
     60.000  dt                Timestep size (s) for 3-D equations.
         20  ndtfast           Number of timesteps for 2-D equations between
                                 each 3D timestep.
          1  ERstr             Starting ensemble/perturbation run number.
          1  ERend             Ending ensemble/perturbation run number.
          0  nrrec             Number of restart records to read from disk.
          T  LcycleRST         Switch to recycle time-records in restart file.
        720  nRST              Number of timesteps between the writing of data
                                 into restart fields.
          1  ninfo             Number of timesteps between print of information
                                 to standard output.
          1  nSTA              Number of timesteps between the writing of data
                                 the stations file.
          T  ldefout           Switch to create a new output NetCDF file(s).
         60  nHIS              Number of timesteps between the writing fields
                                 into history file.
          0  nQCK              Number of timesteps between the writing fields
                                 into quicksave file.
          1  ntsAVG            Starting timestep for the accumulation of output
                                 time-averaged data.
         60  nAVG              Number of timesteps between the writing of
                                 time-averaged data into averages file.
          1  ntsDIA            Starting timestep for the accumulation of output
                                 time-averaged diagnostics data.
         60  nDIA              Number of timesteps between the writing of
                                 time-averaged data into diagnostics file.
 1.0000E-03  nl_visc2          NLM Horizontal, harmonic mixing coefficient
                                 (m2/s) for momentum.
          F  LuvSponge         Turning OFF sponge on horizontal momentum.
          F  LtracerSponge(01) Turning OFF sponge on tracer 01: temp
          F  LtracerSponge(02) Turning OFF sponge on tracer 02: salt
 5.0000E-06  Akt_bak(01)       Background vertical mixing coefficient (m2/s)
                                 for tracer 01: temp
 5.0000E-06  Akt_bak(02)       Background vertical mixing coefficient (m2/s)
                                 for tracer 02: salt
 5.0000E-05  Akv_bak           Background vertical mixing coefficient (m2/s)
                                 for momentum.
 5.0000E-06  Akk_bak           Background vertical mixing coefficient (m2/s)
                                 for turbulent energy.
 5.0000E-06  Akp_bak           Background vertical mixing coefficient (m2/s)
                                 for turbulent generic statistical field.
      3.000  gls_p             GLS stability exponent.
      1.500  gls_m             GLS turbulent kinetic energy exponent.
     -1.000  gls_n             GLS turbulent length scale exponent.
 7.6000E-06  gls_Kmin          GLS minimum value of turbulent kinetic energy.
 1.0000E-12  gls_Pmin          GLS minimum value of dissipation.
 5.4770E-01  gls_cmu0          GLS stability coefficient.
 1.4400E+00  gls_c1            GLS shear production coefficient.
 1.9200E+00  gls_c2            GLS dissipation coefficient.
-4.0000E-01  gls_c3m           GLS stable buoyancy production coefficient.
 1.0000E+00  gls_c3p           GLS unstable buoyancy production coefficient.
 1.0000E+00  gls_sigk          GLS constant Schmidt number for TKE.
 1.3000E+00  gls_sigp          GLS constant Schmidt number for PSI.
   1400.000  charnok_alpha     Charnok factor for Zos calculation.
      0.500  zos_hsig_alpha    Factor for Zos calculation using Hsig(Awave).
      0.250  sz_alpha          Factor for Wave dissipation surface tke flux .
    100.000  crgban_cw         Factor for Craig/Banner surface tke flux.
      0.000  wec_alpha         WEC factor for roller/breaking energy distribution.
 3.0000E-04  rdrg              Linear bottom drag coefficient (m/s).
 2.5000E-02  rdrg2             Quadratic bottom drag coefficient.
 1.5000E-02  Zob               Bottom roughness (m).
 5.0000E-01  Zos               Surface roughness (m).
          1  Vtransform        S-coordinate transformation equation.
          1  Vstretching       S-coordinate stretching function.
 1.0000E+00  theta_s           S-coordinate surface control parameter.
 1.0000E+00  theta_b           S-coordinate bottom  control parameter.
      0.000  Tcline            S-coordinate surface/bottom layer width (m) used
                                 in vertical coordinate stretching.
   1025.000  rho0              Mean density (kg/m3) for Boussinesq approximation.
      0.000  dstart            Time-stamp assigned to model initialization (days).
       0.00  time_ref          Reference time for units attribute (yyyymmdd.dd)
 0.0000E+00  Tnudg(01)         Nudging/relaxation time scale (days)
                                 for tracer 01: temp
 0.0000E+00  Tnudg(02)         Nudging/relaxation time scale (days)
                                 for tracer 02: salt
 0.0000E+00  Znudg             Nudging/relaxation time scale (days)
                                 for free-surface.
 0.0000E+00  M2nudg            Nudging/relaxation time scale (days)
                                 for 2D momentum.
 0.0000E+00  M3nudg            Nudging/relaxation time scale (days)
                                 for 3D momentum.
 0.0000E+00  obcfac            Factor between passive and active
                                 open boundary conditions.
          F  VolCons(1)        NLM western  edge boundary volume conservation.
          F  VolCons(2)        NLM southern edge boundary volume conservation.
          F  VolCons(3)        NLM eastern  edge boundary volume conservation.
          F  VolCons(4)        NLM northern edge boundary volume conservation.
     10.000  T0                Background potential temperature (C) constant.
     30.000  S0                Background salinity (PSU) constant.
   1027.000  R0                Background density (kg/m3) used in linear Equation
                                 of State.
 1.7000E-04  Tcoef             Thermal expansion coefficient (1/Celsius).
 7.6000E-04  Scoef             Saline contraction coefficient (1/PSU).
      1.000  gamma2            Slipperiness variable: free-slip (1.0) or 
                                                      no-slip (-1.0).
          F  LuvSrc            Turning OFF momentum point Sources/Sinks.
          F  LwSrc             Turning OFF volume influx point Sources/Sinks.
          F  LtracerSrc(01)    Turning OFF point Sources/Sinks on tracer 01: temp
          F  LtracerSrc(02)    Turning OFF point Sources/Sinks on tracer 02: salt
          F  LsshCLM           Turning OFF processing of SSH climatology.
          F  Lm2CLM            Turning OFF processing of 2D momentum climatology.
          F  Lm3CLM            Turning OFF processing of 3D momentum climatology.
          F  LtracerCLM(01)    Turning OFF processing of climatology tracer 01: temp
          F  LtracerCLM(02)    Turning OFF processing of climatology tracer 02: salt
          F  LnudgeM2CLM       Turning OFF nudging of 2D momentum climatology.
          F  LnudgeM3CLM       Turning OFF nudging of 3D momentum climatology.
          F  LnudgeTCLM(01)    Turning OFF nudging of climatology tracer 01: temp
          F  LnudgeTCLM(02)    Turning OFF nudging of climatology tracer 02: salt

          T  Hout(idBath)      Write out time-dependent bathymetry.
          T  Hout(idFsur)      Write out free-surface.
          T  Hout(idUbar)      Write out 2D U-momentum component.
          T  Hout(idVbar)      Write out 2D V-momentum component.
          T  Hout(idUvel)      Write out 3D U-momentum component.
          T  Hout(idVvel)      Write out 3D V-momentum component.
          T  Hout(idWvel)      Write out W-momentum component.
          T  Hout(idOvel)      Write out omega vertical velocity.
          T  Hout(idTvar)      Write out tracer 01: temp
          T  Hout(idTvar)      Write out tracer 02: salt
          T  Hout(idpthR)      Write out time-varying dephts of RHO-points.
          T  Hout(idpthU)      Write out time-varying dephts of U-points.
          T  Hout(idpthV)      Write out time-varying dephts of V-points.
          T  Hout(idpthW)      Write out time-varying dephts of W-points.
          T  Hout(idUbms)      Write out bottom U-momentum stress.
          T  Hout(idVbms)      Write out bottom V-momentum stress.
          T  Hout(idUbrs)      Write out bottom U-current stress.
          T  Hout(idVbrs)      Write out bottom V-current stress.
          T  Hout(idUbws)      Write out wind-induced, bottom U-wave stress.
          T  Hout(idVbws)      Write out wind-induced, bottom V-wave stress.
          T  Hout(idUbcs)      Write out max wind + current, bottom U-wave stress.
          T  Hout(idVbcs)      Write out max wind + current, bottom V-wave stress.
          T  Hout(idUVwc)      Write out max wind + current, bottom UV-wave stress.
          T  Hout(idUbot)      Write out bed wave orbital U-velocity.
          T  Hout(idVbot)      Write out bed wave orbital V-velocity.
          T  Hout(idUbur)      Write out bottom U-momentum above bed.
          T  Hout(idVbvr)      Write out bottom V-momentum above bed.
          T  Hout(idU2rs)      Write out total 2D u-radiation stress.
          T  Hout(idV2rs)      Write out total 2D v-radiation stress.
          T  Hout(idU2Sd)      Write out 2D u-momentum stokes velocity.
          T  Hout(idV2Sd)      Write out 2D v-momentum stokes velocity.
          T  Hout(idU3rs)      Write out total 3D u-radiation stress.
          T  Hout(idV3rs)      Write out total 3D v-radiation stress.
          T  Hout(idU3Sd)      Write out 3D u-momentum stokes velocity.
          T  Hout(idV3Sd)      Write out 3D v-momentum stokes velocity.
          T  Hout(idW3Sd)      Write out 3D omega-momentum stokes velocity.
          T  Hout(idW3St)      Write out 3D w-momentum stokes velocity.
          T  Hout(idWztw)      Write out WEC quasi-static sea level adjustment.
          T  Hout(idWqsp)      Write out WEC quasi-static pressure.
          T  Hout(idWbeh)      Write out WEC Bernoulli head.
          T  Hout(idWamp)      Write out wave height.
          T  Hout(idWlen)      Write out wavelength.
          T  Hout(idWdir)      Write out wave direction.
          T  Hout(idWptp)      Write out wave surface period.
          T  Hout(idWpbt)      Write out wave bottom period.
          T  Hout(idWorb)      Write out wave bottom orbital velocity.
          T  Hout(idWdif)      Write out wave dissipation due to bottom friction.
          T  Hout(idWdib)      Write out wave dissipation due to breaking.
          T  Hout(idWdiw)      Write out wave dissipation due to white capping.
          T  Hout(idUwav)      Wave-avg surface u-velocity.
          T  Hout(idVwav)      Wave-avg surface v-velocity.
          T  Hout(idVvis)      Write out vertical viscosity: AKv.
          T  Hout(idMtke)      Write out turbulent kinetic energy.
          T  Hout(idMtls)      Write out turbulent generic length-scale.

          T  Aout(idU2Sd)      Write out averaged 2D u-momentum stokes velocity.
          T  Aout(idV2Sd)      Write out averaged 2D v-momentum stokes velocity.
          T  Aout(idSdif)      Write out averaged vertical diffusion: AKt(isalt).

          T  Dout(M2rate)      Write out 2D momentum acceleration.
          T  Dout(M2pgrd)      Write out 2D momentum pressure gradient.
          T  Dout(M2hadv)      Write out 2D momentum horizontal advection.
          T  Dout(M2xadv)      Write out 2D momentum horizontal X-advection.
          T  Dout(M2yadv)      Write out 2D momentum horizontal Y-advection.
          T  Dout(M2hvis)      Write out 2D momentum horizontal viscosity.
          T  Dout(M2xvis)      Write out 2D momentum horizontal X-viscosity.
          T  Dout(M2yvis)      Write out 2D momentum horizontal Y-viscosity.
          T  Dout(M2sstr)      Write out 2D momentum surface stress.
          T  Dout(M2bstr)      Write out 2D momentum bottom stress.


 Output/Input Files:

             Output Restart File:  ocean_rst.nc
             Output History File:  ocean_his_coupled.nc
            Output Averages File:  ocean_avg_coupled.nc
         Output Diagnostics File:  ocean_dia.nc
            Output Stations File:  ocean_sta.nc
        Physical parameters File:  
                 Input Grid File:  inlet_test_grid.nc
          Station positions File:  stations_inlet_test.in

 Tile partition information for Grid 01:  0075x0070x0008  tiling: 001x001

     tile     Istr     Iend     Jstr     Jend     Npts

 Number of tracers:            3
        0        1       75        1       70    42000

 Tile minimum and maximum fractional coordinates for Grid 01:
   (interior points only)

     tile     Xmin     Xmax     Ymin     Ymax     grid

        0     0.50    75.50     0.50    70.50  RHO-points

        0     1.00    75.00     0.50    70.50    U-points

        0     0.50    75.50     1.00    70.00    V-points

 Maximum halo size in XI and ETA directions:

               HaloSizeI(1) =     255
               HaloSizeJ(1) =     243
                TileSide(1) =      79
                TileSize(1) =    5925



 Sediment Parameters, Grid: 01
 =============================


 Size     Sd50        Csed        Srho        Wsed        Erate       poros
 Class    (mm)       (kg/m3)     (kg/m3)     (mm/s)     (kg/m2/s)    (nondim)

   1    1.0000E+00  0.0000E+00  2.6500E+03  1.0000E+00  1.0000E-03  5.0000E-01

         tau_ce      tau_cd      nl_tnu2     nl_tnu4     Akt_bak      Tnudg
         (N/m2)      (N/m2)      (m2/s)      (m4/s)       (m2/s)      (day)

   1    7.0000E-02  2.0000E-02  0.0000E+00  0.0000E+00  5.0000E-06  0.0000E+00

         morph_fac
         (nondim)

   1    1.0000E+00

 New bed layer formed when deposition exceeds  0.10000E-01 (m).
 Two first layers are combined when 2nd layer smaller than  0.00000E+00 (m).
 Rate coefficient for bed load transport =  0.15000E+00

          F  LtracerSponge(03Turning OFF sponge on tracer 03: sand_01
          F  LtracerSrc(03)  Turning OFF point sources/Sink on tracer 03: sand_01
          F  LtracerCLM(03)  Turning OFF processing of climatology tracer 03: sand_01
          F  LnudgeTCLM(03)  Turning OFF nudging of climatology tracer 03: sand_01

          T  Hout(idTvar)   Write out sediment01: sand_01
          T  Hout(idfrac)   Write out bed fraction, sediment 01: sandfrac_01
          T  Hout(idfrac)   Write out mass, sediment 01: sandmass_01
          T  Hout(idSbed)   Write out BED property 01: bed_thickness
          T  Hout(idSbed)   Write out BED property 02: bed_age
          T  Hout(idSbed)   Write out BED property 03: bed_porosity
          T  Hout(idSbed)   Write out BED property 04: bed_biodiff
          T  Hout(idBott)   Write out BOTTOM property 01: grain_diameter
          T  Hout(idBott)   Write out BOTTOM property 02: grain_density
          T  Hout(idBott)   Write out BOTTOM property 03: settling_vel
          T  Hout(idBott)   Write out BOTTOM property 04: erosion_stress
          T  Hout(idBott)   Write out BOTTOM property 05: ripple_length
          T  Hout(idBott)   Write out BOTTOM property 06: ripple_height
          T  Hout(idBott)   Write out BOTTOM property 07: bed_wave_amp
          T  Hout(idBott)   Write out BOTTOM property 08: Zo_def
          T  Hout(idBott)   Write out BOTTOM property 09: Zo_app
          T  Hout(idBott)   Write out BOTTOM property 15: active_layer_thickness
          T  Hout(idBott)   Write out BOTTOM property 17: bed_inund_depth
          T  Hout(idBott)   Write out BOTTOM property 18: dep_net



 Stations Parameters, Grid: 01
 =============================

          3  Nstation        Number of stations to write out into stations file.
          T  Sout(idbath)    Write out free-surface.
          T  Sout(idFsur)    Write out free-surface.
          T  Sout(idUbar)    Write out 2D U-momentum component.
          T  Sout(idVbar)    Write out 2D V-momentum component.
          T  Sout(idUvel)    Write out 3D U-momentum component.
          T  Sout(idVvel)    Write out 3D V-momentum component.
          T  Sout(idWvel)    Write out W-momentum component.
          T  Sout(idOvel)    Write out omega vertical velocity.
          T  Sout(idTvar)    Write out tracer 01: temp
          T  Sout(idTvar)    Write out tracer 02: salt
          T  Sout(idTvar)    Write out tracer 03: sand_01
          T  Sout(idUsms)    Write out surface U-momentum stress.
          T  Sout(idVsms)    Write out surface V-momentum stress.
          T  Sout(idUbms)    Write out bottom U-momentum stress.
          T  Sout(idVbms)    Write out bottom V-momentum stress.
          T  Sout(idUbrs)    Write out bottom U-current stress.
          T  Sout(idVbrs)    Write out bottom V-current stress.
          T  Sout(idUbws)    Write out wind-induced, bottom U-wave stress.
          T  Sout(idVbws)    Write out wind-induced, bottom V-wave stress.
          T  Sout(idUbcs)    Write out max wind + current, bottom U-wave stress.
          T  Sout(idVbcs)    Write out max wind + current, bottom V-wave stress.
          T  Sout(idUbot)    Write out bed wave orbital U-velocity.
          T  Sout(idVbot)    Write out bed wave orbital V-velocity.
          T  Sout(idUbur)    Write out bottom U-velocity above bed.
          T  Sout(idVbvr)    Write out bottom V-velocity above bed.
          T  Sout(idWamp)    Write out wave height.
          T  Sout(idWlen)    Write out wave length.
          T  Sout(idWdir)    Write out wave direction.
          T  Sout(idWptp)    Write out wave surface period.
          T  Sout(idWpbt)    Write out wave bottom period.
          T  Sout(idWorb)    Write out wave bottom orbital velocity.
          T  Sout(idWdis)    Write out wave dissipation.
          T  Sout(idBott)    Write out bottom property 01: grain_diameter
          T  Sout(idBott)    Write out bottom property 02: grain_density
          T  Sout(idBott)    Write out bottom property 03: settling_vel
          T  Sout(idBott)    Write out bottom property 04: erosion_stress
          T  Sout(idBott)    Write out bottom property 05: ripple_length
          T  Sout(idBott)    Write out bottom property 06: ripple_height
          T  Sout(idBott)    Write out bottom property 07: bed_wave_amp
          T  Sout(idBott)    Write out bottom property 08: Zo_def
          T  Sout(idBott)    Write out bottom property 09: Zo_app
          T  Sout(idBott)    Write out bottom property 10: Zo_Nik
          T  Sout(idBott)    Write out bottom property 11: Zo_bio
          T  Sout(idBott)    Write out bottom property 12: Zo_bedform
          T  Sout(idBott)    Write out bottom property 13: Zo_bedload
          T  Sout(idBott)    Write out bottom property 14: Zo_wbl
          T  Sout(idBott)    Write out bottom property 15: active_layer_thickness
          T  Sout(idBott)    Write out bottom property 16: saltation
          T  Sout(idBott)    Write out bottom property 17: bed_inund_depth
          T  Sout(idBott)    Write out bottom property 18: dep_net
          T  Sout(idVvis)    Write out vertical viscosity coefficient.
          T  Sout(idMtke)    Write out turbulent kinetic energy.
          T  Sout(idMtls)    Write out turbulent generic length-scale.

             Flag and positions for station 0001:  0    38.0000   25.0000
             Flag and positions for station 0002:  0    38.0000   35.0000
             Flag and positions for station 0003:  0    38.0000   45.0000

 Lateral Boundary Conditions: NLM
 ============================

 Variable               Grid  West Edge    South Edge   East Edge    North Edge
 ---------              ----  ----------   ----------   ----------   ----------

 zeta                     1   Gradient     Closed       Gradient     Clamped

 ubar                     1   Gradient     Closed       Gradient     Reduced

 vbar                     1   Gradient     Closed       Gradient     Reduced

 u                        1   Gradient     Closed       Gradient     Reduced

 v                        1   Gradient     Closed       Gradient     Reduced

 temp                     1   Gradient     Closed       Gradient     Gradient

 salt                     1   Gradient     Closed       Gradient     Gradient

 sand_01                  1   Gradient     Closed       Gradient     Gradient

 tke                      1   Gradient     Closed       Gradient     Gradient

 ubar_stokes              1   Gradient     Closed       Gradient     Gradient

 vbar_stokes              1   Gradient     Closed       Gradient     Gradient

 u_stokes                 1   Gradient     Closed       Gradient     Gradient

 v_stokes                 1   Gradient     Closed       Gradient     Gradient

 Activated C-preprocessing Options:

 INLET_TEST          Inlet Test Case
 ANA_BPFLUX          Analytical bottom passive tracers fluxes.
 ANA_BSFLUX          Analytical kinematic bottom salinity flux.
 ANA_BTFLUX          Analytical kinematic bottom temperature flux.
 ANA_FSOBC           Analytical free-surface boundary conditions.
 ANA_INITIAL         Analytical initial conditions.
 ANA_M2OBC           Analytical 2D momentum boundary conditions.
 ANA_SEDIMENT        Analytical sediment initial conditions.
 ANA_SMFLUX          Analytical kinematic surface momentum flux.
 ANA_SPFLUX          Analytical surface passive tracer fluxes.
 ANA_SSFLUX          Analytical kinematic surface salinity flux.
 ANA_STFLUX          Analytical kinematic surface temperature flux.
 ASSUMED_SHAPE       Using assumed-shape arrays.
 AVERAGES            Writing out time-averaged nonlinear model fields.
 !BOUNDARY_ALLGATHER Using mpi_allreduce in mp_boundary routine.
 !COLLECT_ALL...     Using mpi_isend/mpi_recv in mp_collect routine.
 DIAGNOSTICS_UV      Computing and writing momentum diagnostic terms.
 DJ_GRADPS           Parabolic Splines density Jacobian (Shchepetkin, 2002).
 DOUBLE_PRECISION    Double precision arithmetic.
 GLS_MIXING          Generic Length-Scale turbulence closure.
 KANTHA_CLAYSON      Kantha and Clayson stability function formulation.
 MASKING             Land/Sea masking.
 MCT_LIB             Using Model Coupling Toolkit library.
 MIX_S_UV            Mixing of momentum along constant S-surfaces.
 MPI                 MPI distributed-memory configuration.
 WEC_VF              Vortex Force wave current interaction.
 WDISS_WAVEMOD       Wave energy dissipation acquired from coupled wave model.
 NONLINEAR           Nonlinear Model.
 !NONLIN_EOS         Linear Equation of State for seawater.
 N2S2_HORAVG         Horizontal smoothing of buoyancy and shear.
 POWER_LAW           Power-law shape time-averaging barotropic filter.
 PROFILE             Time profiling activated .
 K_GSCHEME           Third-order upstream advection of TKE fields.
 REDUCE_ALLGATHER    Using mpi_allgather in mp_reduce routine.
 RI_SPLINES          Parabolic Spline Reconstruction for Richardson Number.
 !RST_SINGLE         Double precision fields in restart NetCDF file.
 SEDIMENT            Cohesive and noncohesive sediments.
 SED_MORPH           Allow bottom model elevation to evolve.
 SUSPLOAD            Activate suspended sediment transport.
 NONCOHESIVE_BED1    Activate non-cohesive (original) sediment bed.
 SOLVE3D             Solving 3D Primitive Equations.
 SPLINES_VDIFF       Parabolic Spline Reconstruction for Vertical Diffusion.
 SPLINES_VVISC       Parabolic Spline Reconstruction for Vertical Viscosity.
 SSW_BBL             Styles and Glenn Bottom Boundary Layer - modified.
 SSW_CALC_ZNOT       Internal computation of bottom roughness.
 STATIONS            Writing out station data.
 SWAN_COUPLING       SWAN model coupling.
 TS_MPDATA           Recursive flux corrected MPDATA 3D advection of tracers.
 UV_ADV              Advection of momentum.
 UV_U3HADVECTION     Third-order upstream horizontal advection of 3D momentum.
 UV_C4VADVECTION     Fourth-order centered vertical advection of momentum.
 UV_KIRBY            Compute uwave and vwave Kirby avg velocities.
 UV_VIS2             Harmonic mixing of momentum.
 VAR_RHO_2D          Variable density barotropic mode.
 WAVES_OCEAN         Two-way wave-ocean models coupling.

 Process Information:

 Node #  0 (pid=    7803) is active.

 INITIAL: Configuring and initializing forward nonlinear model ...
 *******

    GET_GRID    - bathymetry at RHO-points: h
                   (Grid = 01, File: inlet_test_grid.nc)
                   (Min =  4.00000000E+00 Max =  1.55200000E+01)
    GET_GRID    - Coriolis parameter at RHO-points: f
                   (Grid = 01, File: inlet_test_grid.nc)
                   (Min =  4.98800000E-05 Max =  4.98800000E-05)
    GET_GRID    - reciprocal XI-grid spacing: pm
                   (Grid = 01, File: inlet_test_grid.nc)
                   (Min =  5.00000000E-03 Max =  5.00000000E-03)
    GET_GRID    - reciprocal ETA-grid spacing: pn
                   (Grid = 01, File: inlet_test_grid.nc)
                   (Min =  5.00000000E-03 Max =  5.00000000E-03)
    GET_GRID    - x-location of RHO-points: x-rho
                   (Grid = 01, File: inlet_test_grid.nc)
                   (Min = -1.00000000E+02 Max =  1.51000000E+04)
    GET_GRID    - y-location of RHO-points: y_rho
                   (Grid = 01, File: inlet_test_grid.nc)
                   (Min = -1.00000000E+02 Max =  1.41000000E+04)
    GET_GRID    - x-location of PSI-points: x_psi
                   (Grid = 01, File: inlet_test_grid.nc)
                   (Min =  0.00000000E+00 Max =  1.50000000E+04)
    GET_GRID    - y-location of PSI-points: y-psi
                   (Grid = 01, File: inlet_test_grid.nc)
                   (Min =  0.00000000E+00 Max =  1.40000000E+04)
    GET_GRID    - x-location of U-points: x_u
                   (Grid = 01, File: inlet_test_grid.nc)
                   (Min =  0.00000000E+00 Max =  1.50000000E+04)
    GET_GRID    - y-location of U-points: y_u
                   (Grid = 01, File: inlet_test_grid.nc)
                   (Min = -1.00000000E+02 Max =  1.41000000E+04)
    GET_GRID    - x-location of V-points: x_v
                   (Grid = 01, File: inlet_test_grid.nc)
                   (Min = -1.00000000E+02 Max =  1.51000000E+04)
    GET_GRID    - y-location of V-points: y_v
                   (Grid = 01, File: inlet_test_grid.nc)
                   (Min =  0.00000000E+00 Max =  1.40000000E+04)
    GET_GRID    - mask on RHO-points: mask_rho
                   (Grid = 01, File: inlet_test_grid.nc)
                   (Min =  0.00000000E+00 Max =  1.00000000E+00)
    GET_GRID    - mask on U-points: mask_u
                   (Grid = 01, File: inlet_test_grid.nc)
                   (Min =  0.00000000E+00 Max =  1.00000000E+00)
    GET_GRID    - mask on V-points: mask_v
                   (Grid = 01, File: inlet_test_grid.nc)
                   (Min =  0.00000000E+00 Max =  1.00000000E+00)
    GET_GRID    - mask on PSI-points: mask_psi
                   (Grid = 01, File: inlet_test_grid.nc)
                   (Min =  0.00000000E+00 Max =  1.00000000E+00)
    GET_GRID    - angle between XI-axis and EAST: angler
                   (Grid = 01, File: inlet_test_grid.nc)
                   (Min =  0.00000000E+00 Max =  0.00000000E+00)

 Vertical S-coordinate System, Grid 01:

 level   S-coord     Cs-curve   Z   at hmin       at hc    half way     at hmax

     8   0.0000000   0.0000000        0.000       0.000       0.000       0.000
     7  -0.1250000  -0.1122656       -0.449      -0.000      -1.096      -1.742
     6  -0.2500000  -0.2350037       -0.940      -0.000      -2.294      -3.647
     5  -0.3750000  -0.3654529       -1.462      -0.000      -3.567      -5.672
     4  -0.5000000  -0.5000000       -2.000      -0.000      -4.880      -7.760
     3  -0.6250000  -0.6345471       -2.538      -0.000      -6.193      -9.848
     2  -0.7500000  -0.7649963       -3.060      -0.000      -7.466     -11.873
     1  -0.8750000  -0.8877344       -3.551      -0.000      -8.664     -13.778
     0  -1.0000000  -1.0000000       -4.000      -0.000      -9.760     -15.520

 Time Splitting Weights for Grid 01:    ndtfast =  20    nfast =  29
 ==================================

    Primary            Secondary            Accumulated to Current Step

  1-0.0009651193358779 0.0500000000000000-0.0009651193358779 0.0500000000000000
  2-0.0013488780126037 0.0500482559667939-0.0023139973484816 0.1000482559667939
  3-0.0011514592651645 0.0501156998674241-0.0034654566136460 0.1501639558342179
  4-0.0003735756740661 0.0501732728306823-0.0038390322877122 0.2003372286649002
  5 0.0009829200513762 0.0501919516143856-0.0028561122363360 0.2505291802792858
  6 0.0029141799764308 0.0501428056118168 0.0000580677400948 0.3006719858911026
  7 0.0054132615310267 0.0499970966129952 0.0054713292711215 0.3506690825040978
  8 0.0084687837865132 0.0497264335364439 0.0139401130576347 0.4003955160405417
  9 0.0120633394191050 0.0493029943471183 0.0260034524767397 0.4496985103876600
 10 0.0161716623600090 0.0486998273761630 0.0421751148367486 0.4983983377638230
 11 0.0207585511322367 0.0478912442581626 0.0629336659689853 0.5462895820219856
 12 0.0257765478740990 0.0468533167015507 0.0887102138430843 0.5931428987235363
 13 0.0311633730493853 0.0455644893078458 0.1198735868924696 0.6387073880313821
 14 0.0368391158442262 0.0440063206553765 0.1567127027366958 0.6827137086867585
 15 0.0427031802506397 0.0421643648631652 0.1994158829873354 0.7248780735499237
 16 0.0486309868367616 0.0400292058506332 0.2480468698240970 0.7649072794005569
 17 0.0544704302037591 0.0375976565087951 0.3025173000278562 0.8025049359093520
 18 0.0600380921294285 0.0348741349986072 0.3625553921572847 0.8373790709079592
 19 0.0651152103984763 0.0318722303921358 0.4276706025557610 0.8692513013000949
 20 0.0694434033194839 0.0286164698722119 0.4971140058752449 0.8978677711723068
 21 0.0727201499285569 0.0251442997062377 0.5698341558038018 0.9230120708785445
 22 0.0745940258796570 0.0215082922098099 0.6444281816834588 0.9445203630883544
 23 0.0746596950216180 0.0177785909158270 0.7190878767050768 0.9622989540041814
 24 0.0724526566618460 0.0140456061647461 0.7915405333669228 0.9763445601689276
 25 0.0674437485167025 0.0104229733316538 0.8589842818836253 0.9867675335005814
 26 0.0590334053485720 0.0070507859058187 0.9180176872321973 0.9938183194064002
 27 0.0465456732896125 0.0040991156383901 0.9645633605218099 0.9979174350447904
 28 0.0292219798521905 0.0017718319739095 0.9937853403740005 0.9996892670186999
 29 0.0062146596259994 0.0003107329813000 0.9999999999999999 0.9999999999999999

 ndtfast, nfast =   20  29   nfast/ndtfast =  1.45000

 Centers of gravity and integrals (values must be 1, 1, approx 1/2, 1, 1):

    1.000000000000 1.060707743385 0.530353871693 1.000000000000 1.000000000000

 Power filter parameters, Fgamma, gamma =  0.28400   0.14200

 Metrics information for Grid 01:
 ===============================

 Minimum X-grid spacing, DXmin =  2.00000000E-01 km
 Maximum X-grid spacing, DXmax =  2.00000000E-01 km
 Minimum Y-grid spacing, DYmin =  2.00000000E-01 km
 Maximum Y-grid spacing, DYmax =  2.00000000E-01 km
 Minimum Z-grid spacing, DZmin =  4.49062569E-01 m
 Maximum Z-grid spacing, DZmax =  2.08817024E+00 m

 Minimum barotropic Courant Number =  1.32883408E-01
 Maximum barotropic Courant Number =  2.61749957E-01
 Maximum Coriolis   Courant Number =  2.99280000E-03

    ANA_INITIAL - vertically integrated u-momentum component: ubar
                   (Grid = 01, Min =  0.00000000E+00 Max =  0.00000000E+00)
    ANA_INITIAL - vertically integrated v-momentum component: vbar
                   (Grid = 01, Min =  0.00000000E+00 Max =  0.00000000E+00)
    ANA_INITIAL - free-surface: zeta
                   (Grid = 01, Min =  0.00000000E+00 Max =  0.00000000E+00)
    ANA_INITIAL - u-momentum component: u
                   (Grid = 01, Min =  0.00000000E+00 Max =  0.00000000E+00)
    ANA_INITIAL - v-momentum component: v
                   (Grid = 01, Min =  0.00000000E+00 Max =  0.00000000E+00)
    ANA_INITIAL - potential temperature: temp
                   (Grid = 01, Min =  1.00000000E+01 Max =  1.00000000E+01)
    ANA_INITIAL - salinity: salt
                   (Grid = 01, Min =  0.00000000E+00 Max =  0.00000000E+00)

 Basin information for Grid 01:

 Maximum grid stiffness ratios:  rx0 =   3.846154E-02 (Beckmann and Haidvogel)
                                 rx1 =   6.467265E-01 (Haney)

 Initial domain volumes:  TotVolume =  1.4345600000E+09 m3
                         MinCellVol =  1.7962502760E+04 m3
                         MaxCellVol =  8.1804607218E+04 m3
                            Max/Min =  4.5541875935E+00
 == SWAN grid  1 sent wave data to ROMS grid  1
 ** ROMS grid  1 recv data from SWAN grid  1
SWANtoROMS Min/Max DISBOT  (Wm-2):     0.000000E+00  0.000000E+00
SWANtoROMS Min/Max DISSURF (Wm-2):     0.000000E+00  0.000000E+00
SWANtoROMS Min/Max DISWCAP (Wm-2):     0.000000E+00  0.000000E+00
SWANtoROMS Min/Max HSIGN   (m):        0.000000E+00  9.979796E-01
SWANtoROMS Min/Max RTP     (s):        0.000000E+00  9.518269E+00
SWANtoROMS Min/Max TMBOT   (s):        0.000000E+00  9.856884E+00
SWANtoROMS Min/Max UBOT    (ms-1):     0.000000E+00  2.001945E-01
SWANtoROMS Min/Max DIR     (deg):      0.000000E+00  1.413716E+00
SWANtoROMS Min/Max WLEN    (m):        1.000000E+00  7.688359E+01


 == SWAN grid  1 recv data from ROMS grid  1
 ** ROMS grid  1 sent data to SWAN grid  1



 NL ROMS/TOMS: started time-stepping: (Grid: 01 TimeSteps: 000000000001 - 000000000720)

ROMStoSWAN Min/Max DEPTH   (m):        4.000000E+00  1.552000E+01
ROMStoSWAN Min/Max WLEV    (m):        0.000000E+00  0.000000E+00
ROMStoSWAN Min/Max VELX    (ms-1):     0.000000E+00  0.000000E+00
ROMStoSWAN Min/Max VELY    (ms-1):     0.000000E+00  0.000000E+00
ROMStoSWAN Min/Max ZO      (m):        5.000000E-02  5.000000E-02

 TIME-STEP YYYY-MM-DD hh:mm:ss.ss  KINETIC_ENRG   POTEN_ENRG    TOTAL_ENRG    NET_VOLUME
                     C => (i,j,k)       Cu            Cv            Cw         Max Speed

         0 0001-01-01 00:00:00.00  0.000000E+00  4.346400E+01  4.346400E+01  1.444800E+09
                        (00,00,0)  0.000000E+00  0.000000E+00  0.000000E+00  0.000000E+00
+time 20000101.000100   , step      1; iteration    1; sweep 1 grid   1
      DEF_HIS     - creating  history      file, Grid 01: ocean_his_coupled.nc
      WRT_HIS     - wrote history     fields (Index=1,1) in record = 0000001
      DEF_AVG     - creating  average      file, Grid 01: ocean_avg_coupled.nc
      DEF_DIAGS   - creating  diagnostics  file, Grid 01: ocean_dia.nc
      DEF_STATION - creating  stations     file, Grid 01: ocean_sta.nc
         1 0001-01-01 00:01:00.00  5.592032E-12  4.346400E+01  4.346400E+01  1.444800E+09
                        (02,33,7)  4.642986E-06  3.460276E-07  6.750030E-05  2.325379E-05
         2 0001-01-01 00:02:00.00  1.360392E-06  4.345927E+01  4.345927E+01  1.444733E+09
                        (01,70,8)  0.000000E+00  1.849386E-03  4.529167E-07  6.167792E-03
+time 20000101.000100   , step      1; iteration    1; sweep 2 grid   1
         3 0001-01-01 00:03:00.00  8.986874E-06  4.344851E+01  4.344852E+01  1.444573E+09
                        (01,68,8)  0.000000E+00  3.195880E-03  5.545749E-03  1.303272E-02
         4 0001-01-01 00:04:00.00  2.826718E-05  4.343242E+01  4.343244E+01  1.444321E+09
                        (01,68,8)  0.000000E+00  5.329770E-03  6.189773E-03  1.975277E-02
+time 20000101.000100   , step      1; iteration    1; sweep 3 grid   1
         5 0001-01-01 00:05:00.00  6.391231E-05  4.341177E+01  4.341184E+01  1.443977E+09
                        (01,68,8)  0.000000E+00  7.375113E-03  6.247630E-03  2.637349E-02
         6 0001-01-01 00:06:00.00  1.205828E-04  4.338728E+01  4.338740E+01  1.443545E+09
                        (01,68,8)  0.000000E+00  9.412693E-03  6.277397E-03  3.282847E-02
         7 0001-01-01 00:07:00.00  2.022237E-04  4.335961E+01  4.335981E+01  1.443026E+09
                        (01,68,8)  0.000000E+00  1.138024E-02  6.323318E-03  3.915629E-02
+time 20000101.000100   , step      1; iteration    1; sweep 4 grid   1
         8 0001-01-01 00:08:00.00  3.126975E-04  4.332937E+01  4.332968E+01  1.442422E+09
                        (13,68,8)  1.723489E-16  1.332131E-02  6.349168E-03  4.533715E-02
         9 0001-01-01 00:09:00.00  4.551812E-04  4.329713E+01  4.329758E+01  1.441736E+09
                        (13,68,8)  1.122442E-13  1.520308E-02  6.387635E-03  5.148543E-02
+time 20000101.000200   , step      2; iteration    1; sweep 1 grid   1
        10 0001-01-01 00:10:00.00  6.326432E-04  4.326338E+01  4.326401E+01  1.440970E+09
                        (15,68,8)  6.775298E-11  1.704856E-02  6.414387E-03  5.750513E-02
+time 20000101.000200   , step      2; iteration    1; sweep 2 grid   1
+time 20000101.000200   , step      2; iteration    1; sweep 3 grid   1
+time 20000101.000200   , step      2; iteration    1; sweep 4 grid   1
+time 20000101.000300   , step      3; iteration    1; sweep 1 grid   1
+time 20000101.000300   , step      3; iteration    1; sweep 2 grid   1
+time 20000101.000300   , step      3; iteration    1; sweep 3 grid   1
+time 20000101.000300   , step      3; iteration    1; sweep 4 grid   1
+time 20000101.000400   , step      4; iteration    1; sweep 1 grid   1
+time 20000101.000400   , step      4; iteration    1; sweep 2 grid   1
+time 20000101.000400   , step      4; iteration    1; sweep 3 grid   1
+time 20000101.000400   , step      4; iteration    1; sweep 4 grid   1
+time 20000101.000500   , step      5; iteration    1; sweep 1 grid   1
+time 20000101.000500   , step      5; iteration    1; sweep 2 grid   1
+time 20000101.000500   , step      5; iteration    1; sweep 3 grid   1
+time 20000101.000500   , step      5; iteration    1; sweep 4 grid   1
+time 20000101.000600   , step      6; iteration    1; sweep 1 grid   1
+time 20000101.000600   , step      6; iteration    1; sweep 2 grid   1
+time 20000101.000600   , step      6; iteration    1; sweep 3 grid   1
+time 20000101.000600   , step      6; iteration    1; sweep 4 grid   1
+time 20000101.000700   , step      7; iteration    1; sweep 1 grid   1
+time 20000101.000700   , step      7; iteration    1; sweep 2 grid   1
+time 20000101.000700   , step      7; iteration    1; sweep 3 grid   1
+time 20000101.000700   , step      7; iteration    1; sweep 4 grid   1
+time 20000101.000800   , step      8; iteration    1; sweep 1 grid   1
+time 20000101.000800   , step      8; iteration    1; sweep 2 grid   1
+time 20000101.000800   , step      8; iteration    1; sweep 3 grid   1
+time 20000101.000800   , step      8; iteration    1; sweep 4 grid   1
+time 20000101.000900   , step      9; iteration    1; sweep 1 grid   1
+time 20000101.000900   , step      9; iteration    1; sweep 2 grid   1
+time 20000101.000900   , step      9; iteration    1; sweep 3 grid   1
+time 20000101.000900   , step      9; iteration    1; sweep 4 grid   1
+time 20000101.001000   , step     10; iteration    1; sweep 1 grid   1
+time 20000101.001000   , step     10; iteration    1; sweep 2 grid   1
+time 20000101.001000   , step     10; iteration    1; sweep 3 grid   1
+time 20000101.001000   , step     10; iteration    1; sweep 4 grid   1
 ** ROMS grid  1 recv data from SWAN grid  1
 == SWAN grid  1 sent wave data to ROMS grid  1
SWANtoROMS Min/Max DISBOT  (Wm-2):     0.000000E+00  2.591424E-04
SWANtoROMS Min/Max DISSURF (Wm-2):     0.000000E+00  0.000000E+00
SWANtoROMS Min/Max DISWCAP (Wm-2):     0.000000E+00  2.603334E-07
SWANtoROMS Min/Max HSIGN   (m):        0.000000E+00  9.979796E-01
SWANtoROMS Min/Max RTP     (s):        0.000000E+00  9.518269E+00
SWANtoROMS Min/Max TMBOT   (s):        0.000000E+00  1.053011E+01
SWANtoROMS Min/Max UBOT    (ms-1):     0.000000E+00  2.259701E-01
SWANtoROMS Min/Max DIR     (deg):      0.000000E+00  6.283185E+00
SWANtoROMS Min/Max WLEN    (m):        1.000000E+00  8.282357E+01
 == SWAN grid  1 recv data from ROMS grid  1
 ** ROMS grid  1 sent data to SWAN grid  1
ROMStoSWAN Min/Max DEPTH   (m):        4.000000E+00  1.552000E+01
ROMStoSWAN Min/Max WLEV    (m):       -7.980250E-02  1.844547E-05
ROMStoSWAN Min/Max VELX    (ms-1):    -5.671275E-05  6.397077E-05
ROMStoSWAN Min/Max VELY    (ms-1):    -8.190826E-05  5.746997E-02
ROMStoSWAN Min/Max ZO      (m):        5.000000E-02  5.000000E-02
+time 20000101.001100   , step     11; iteration    1; sweep 1 grid   1
        11 0001-01-01 00:11:00.00  8.463099E-04  4.323018E+01  4.323102E+01  1.440177E+09
                        (74,68,8)  1.014402E-04  1.884685E-02  6.412358E-03  6.357907E-02
        12 0001-01-01 00:12:00.00  1.102009E-03  4.319665E+01  4.319775E+01  1.439316E+09
                        (75,68,8)  1.343284E-04  2.071479E-02  6.864419E-03  6.979131E-02
        13 0001-01-01 00:13:00.00  1.400027E-03  4.316254E+01  4.316394E+01  1.438377E+09
                        (75,68,8)  1.149432E-04  2.255395E-02  7.204613E-03  7.578408E-02
+time 20000101.001100   , step     11; iteration    1; sweep 2 grid   1
        14 0001-01-01 00:14:00.00  1.739143E-03  4.312802E+01  4.312976E+01  1.437359E+09
                        (75,68,8)  9.065731E-05  2.431880E-02  7.149676E-03  8.155890E-02
        15 0001-01-01 00:15:00.00  2.110136E-03  4.309313E+01  4.309524E+01  1.436267E+09
                        (26,36,8)  1.014390E-04  2.644854E-03  3.522664E-02  8.714315E-02
        16 0001-01-01 00:16:00.00  2.498782E-03  4.305774E+01  4.306024E+01  1.435102E+09
                        (43,36,8)  6.640589E-03  1.597494E-02  2.975255E-02  9.258654E-02
        17 0001-01-01 00:17:00.00  2.892449E-03  4.302165E+01  4.302454E+01  1.433867E+09
                        (43,36,8)  1.139305E-02  2.363903E-02  2.861113E-02  9.810247E-02
+time 20000101.001100   , step     11; iteration    1; sweep 3 grid   1
        18 0001-01-01 00:18:00.00  3.280651E-03  4.298469E+01  4.298797E+01  1.432567E+09
                        (33,36,8)  1.671289E-02  3.242879E-02  2.737010E-02  1.285518E-01
        19 0001-01-01 00:19:00.00  3.654581E-03  4.294667E+01  4.295033E+01  1.431203E+09
                        (43,36,8)  2.245208E-02  4.230861E-02  2.789181E-02  1.714784E-01
        20 0001-01-01 00:20:00.00  4.006954E-03  4.290741E+01  4.291141E+01  1.429780E+09
                        (43,36,8)  2.845346E-02  5.312924E-02  2.916308E-02  2.183572E-01
+time 20000101.001100   , step     11; iteration    1; sweep 4 grid   1
+time 20000101.001200   , step     12; iteration    1; sweep 1 grid   1
+time 20000101.001200   , step     12; iteration    1; sweep 2 grid   1
+time 20000101.001200   , step     12; iteration    1; sweep 3 grid   1
+time 20000101.001200   , step     12; iteration    1; sweep 4 grid   1
+time 20000101.001300   , step     13; iteration    1; sweep 1 grid   1
+time 20000101.001300   , step     13; iteration    1; sweep 2 grid   1
+time 20000101.001300   , step     13; iteration    1; sweep 3 grid   1
+time 20000101.001300   , step     13; iteration    1; sweep 4 grid   1
+time 20000101.001400   , step     14; iteration    1; sweep 1 grid   1
+time 20000101.001400   , step     14; iteration    1; sweep 2 grid   1
+time 20000101.001400   , step     14; iteration    1; sweep 3 grid   1
+time 20000101.001400   , step     14; iteration    1; sweep 4 grid   1
+time 20000101.001500   , step     15; iteration    1; sweep 1 grid   1
+time 20000101.001500   , step     15; iteration    1; sweep 2 grid   1
+time 20000101.001500   , step     15; iteration    1; sweep 3 grid   1
+time 20000101.001500   , step     15; iteration    1; sweep 4 grid   1
+time 20000101.001600   , step     16; iteration    1; sweep 1 grid   1
+time 20000101.001600   , step     16; iteration    1; sweep 2 grid   1
+time 20000101.001600   , step     16; iteration    1; sweep 3 grid   1
+time 20000101.001600   , step     16; iteration    1; sweep 4 grid   1
+time 20000101.001700   , step     17; iteration    1; sweep 1 grid   1
+time 20000101.001700   , step     17; iteration    1; sweep 2 grid   1
+time 20000101.001700   , step     17; iteration    1; sweep 3 grid   1
+time 20000101.001700   , step     17; iteration    1; sweep 4 grid   1
+time 20000101.001800   , step     18; iteration    1; sweep 1 grid   1
+time 20000101.001800   , step     18; iteration    1; sweep 2 grid   1
+time 20000101.001800   , step     18; iteration    1; sweep 3 grid   1
+time 20000101.001800   , step     18; iteration    1; sweep 4 grid   1
+time 20000101.001900   , step     19; iteration    1; sweep 1 grid   1
+time 20000101.001900   , step     19; iteration    1; sweep 2 grid   1
+time 20000101.001900   , step     19; iteration    1; sweep 3 grid   1
+time 20000101.001900   , step     19; iteration    1; sweep 4 grid   1
+time 20000101.002000   , step     20; iteration    1; sweep 1 grid   1
+time 20000101.002000   , step     20; iteration    1; sweep 2 grid   1
+time 20000101.002000   , step     20; iteration    1; sweep 3 grid   1
+time 20000101.002000   , step     20; iteration    1; sweep 4 grid   1
 ** ROMS grid  1 recv data from SWAN grid  1
 == SWAN grid  1 sent wave data to ROMS grid  1
SWANtoROMS Min/Max DISBOT  (Wm-2):     0.000000E+00  5.125369E-04
SWANtoROMS Min/Max DISSURF (Wm-2):     0.000000E+00  0.000000E+00
SWANtoROMS Min/Max DISWCAP (Wm-2):     0.000000E+00  2.653159E-07
SWANtoROMS Min/Max HSIGN   (m):        0.000000E+00  9.979796E-01
SWANtoROMS Min/Max RTP     (s):        0.000000E+00  9.518269E+00
SWANtoROMS Min/Max TMBOT   (s):        0.000000E+00  1.048785E+01
SWANtoROMS Min/Max UBOT    (ms-1):     0.000000E+00  3.024915E-01
SWANtoROMS Min/Max DIR     (deg):      0.000000E+00  6.283185E+00
SWANtoROMS Min/Max WLEN    (m):        1.000000E+00  7.678519E+01
 == SWAN grid  1 recv data from ROMS grid  1
 ** ROMS grid  1 sent data to SWAN grid  1
ROMStoSWAN Min/Max DEPTH   (m):        4.000000E+00  1.552087E+01
ROMStoSWAN Min/Max WLEV    (m):       -1.684601E-01  2.480543E-04
ROMStoSWAN Min/Max VELX    (ms-1):    -1.211294E-01  1.219639E-01
ROMStoSWAN Min/Max VELY    (ms-1):    -3.828432E-04  2.151389E-01
ROMStoSWAN Min/Max ZO      (m):        5.000000E-02  5.000000E-02
+time 20000101.002100   , step     21; iteration    1; sweep 1 grid   1
        21 0001-01-01 00:21:00.00  4.328723E-03  4.286558E+01  4.286991E+01  1.428299E+09
                        (43,34,8)  4.074586E-02  6.041127E-02  3.331040E-02  2.669691E-01
        22 0001-01-01 00:22:00.00  4.626845E-03  4.282232E+01  4.282694E+01  1.426775E+09
                        (43,36,8)  3.952139E-02  7.759603E-02  3.634174E-02  3.187448E-01
        23 0001-01-01 00:23:00.00  4.889903E-03  4.277725E+01  4.278214E+01  1.425200E+09
                        (33,36,3)  4.621899E-02  9.178586E-02  4.058211E-02  3.741051E-01
        24 0001-01-01 00:24:00.00  5.118302E-03  4.273014E+01  4.273526E+01  1.423580E+09
                        (43,36,3)  5.282436E-02  1.064950E-01  4.698248E-02  4.317182E-01
+time 20000101.002100   , step     21; iteration    1; sweep 2 grid   1
        25 0001-01-01 00:25:00.00  5.316530E-03  4.268123E+01  4.268654E+01  1.421924E+09
                        (43,36,3)  5.931286E-02  1.214287E-01  5.290505E-02  4.923836E-01
        26 0001-01-01 00:26:00.00  5.493290E-03  4.263166E+01  4.263716E+01  1.420254E+09
                        (33,36,4)  6.655159E-02  1.395275E-01  5.370332E-02  5.572811E-01
        27 0001-01-01 00:27:00.00  5.660832E-03  4.258373E+01  4.258940E+01  1.418609E+09
                        (43,36,4)  7.295467E-02  1.558486E-01  5.838524E-02  6.275217E-01
        28 0001-01-01 00:28:00.00  5.829811E-03  4.254006E+01  4.254589E+01  1.417028E+09
                        (33,36,5)  8.001314E-02  1.756128E-01  5.667405E-02  7.008003E-01
+time 20000101.002100   , step     21; iteration    1; sweep 3 grid   1
        29 0001-01-01 00:29:00.00  6.006894E-03  4.250191E+01  4.250792E+01  1.415531E+09
                        (33,34,8)  1.502860E-01  1.655717E-01  2.760033E-02  7.767875E-01
        30 0001-01-01 00:30:00.00  6.200048E-03  4.246862E+01  4.247482E+01  1.414111E+09
                        (33,34,8)  1.700391E-01  1.793187E-01  3.109765E-02  8.549274E-01
+time 20000101.002100   , step     21; iteration    1; sweep 4 grid   1
+time 20000101.002200   , step     22; iteration    1; sweep 1 grid   1
+time 20000101.002200   , step     22; iteration    1; sweep 2 grid   1
+time 20000101.002200   , step     22; iteration    1; sweep 3 grid   1
+time 20000101.002200   , step     22; iteration    1; sweep 4 grid   1
+time 20000101.002300   , step     23; iteration    1; sweep 1 grid   1
+time 20000101.002300   , step     23; iteration    1; sweep 2 grid   1
+time 20000101.002300   , step     23; iteration    1; sweep 3 grid   1
+time 20000101.002300   , step     23; iteration    1; sweep 4 grid   1
+time 20000101.002400   , step     24; iteration    1; sweep 1 grid   1
+time 20000101.002400   , step     24; iteration    1; sweep 2 grid   1
+time 20000101.002400   , step     24; iteration    1; sweep 3 grid   1
+time 20000101.002400   , step     24; iteration    1; sweep 4 grid   1
+time 20000101.002500   , step     25; iteration    1; sweep 1 grid   1
+time 20000101.002500   , step     25; iteration    1; sweep 2 grid   1
+time 20000101.002500   , step     25; iteration    1; sweep 3 grid   1
+time 20000101.002500   , step     25; iteration    1; sweep 4 grid   1
+time 20000101.002600   , step     26; iteration    1; sweep 1 grid   1
+time 20000101.002600   , step     26; iteration    1; sweep 2 grid   1
+time 20000101.002600   , step     26; iteration    1; sweep 3 grid   1
+time 20000101.002600   , step     26; iteration    1; sweep 4 grid   1
+time 20000101.002700   , step     27; iteration    1; sweep 1 grid   1
+time 20000101.002700   , step     27; iteration    1; sweep 2 grid   1
+time 20000101.002700   , step     27; iteration    1; sweep 3 grid   1
+time 20000101.002700   , step     27; iteration    1; sweep 4 grid   1
+time 20000101.002800   , step     28; iteration    1; sweep 1 grid   1
+time 20000101.002800   , step     28; iteration    1; sweep 2 grid   1
+time 20000101.002800   , step     28; iteration    1; sweep 3 grid   1
+time 20000101.002800   , step     28; iteration    1; sweep 4 grid   1
+time 20000101.002900   , step     29; iteration    1; sweep 1 grid   1
+time 20000101.002900   , step     29; iteration    1; sweep 2 grid   1
+time 20000101.002900   , step     29; iteration    1; sweep 3 grid   1
+time 20000101.002900   , step     29; iteration    1; sweep 4 grid   1
+time 20000101.003000   , step     30; iteration    1; sweep 1 grid   1
+time 20000101.003000   , step     30; iteration    1; sweep 2 grid   1
+time 20000101.003000   , step     30; iteration    1; sweep 3 grid   1
+time 20000101.003000   , step     30; iteration    1; sweep 4 grid   1
 == SWAN grid  1 sent wave data to ROMS grid  1
 ** ROMS grid  1 recv data from SWAN grid  1
SWANtoROMS Min/Max DISBOT  (Wm-2):     0.000000E+00  7.042819E-04
SWANtoROMS Min/Max DISSURF (Wm-2):     0.000000E+00  0.000000E+00
SWANtoROMS Min/Max DISWCAP (Wm-2):     0.000000E+00  2.668032E-07
SWANtoROMS Min/Max HSIGN   (m):        0.000000E+00  9.979796E-01
SWANtoROMS Min/Max RTP     (s):        0.000000E+00  9.518269E+00
SWANtoROMS Min/Max TMBOT   (s):        0.000000E+00  1.027105E+01
SWANtoROMS Min/Max UBOT    (ms-1):     0.000000E+00  3.459960E-01
SWANtoROMS Min/Max DIR     (deg):      0.000000E+00  6.283185E+00
SWANtoROMS Min/Max WLEN    (m):        1.000000E+00  7.667678E+01
 == SWAN grid  1 recv data from ROMS grid  1
 ** ROMS grid  1 sent data to SWAN grid  1
ROMStoSWAN Min/Max DEPTH   (m):        4.000000E+00  1.552181E+01
ROMStoSWAN Min/Max WLEV    (m):       -3.135221E-01  3.375415E-04
ROMStoSWAN Min/Max VELX    (ms-1):    -5.722029E-01  5.723826E-01
ROMStoSWAN Min/Max VELY    (ms-1):    -1.116124E-04  7.358195E-01
ROMStoSWAN Min/Max ZO      (m):        5.000000E-02  5.000000E-02
+time 20000101.003100   , step     31; iteration    1; sweep 1 grid   1
        31 0001-01-01 00:31:00.00  6.416411E-03  4.243859E+01  4.244501E+01  1.412746E+09
                        (43,34,8)  1.907915E-01  1.930575E-01  3.793984E-02  9.354004E-01
        32 0001-01-01 00:32:00.00  6.669662E-03  4.241070E+01  4.241737E+01  1.411421E+09
                        (43,34,8)  2.116585E-01  2.071067E-01  3.262961E-02  1.016373E+00
        33 0001-01-01 00:33:00.00  6.961641E-03  4.238364E+01  4.239060E+01  1.410119E+09
                        (43,34,8)  2.327390E-01  2.211766E-01  3.960694E-02  1.097919E+00
+time 20000101.003100   , step     31; iteration    1; sweep 2 grid   1
        34 0001-01-01 00:34:00.00  7.294695E-03  4.235646E+01  4.236376E+01  1.408830E+09
                        (43,34,8)  2.532770E-01  2.358969E-01  4.625240E-02  1.180059E+00
        35 0001-01-01 00:35:00.00  7.671568E-03  4.232963E+01  4.233730E+01  1.407564E+09
                        (43,34,8)  2.728248E-01  2.509375E-01  5.002623E-02  1.261163E+00
        36 0001-01-01 00:36:00.00  8.092321E-03  4.230404E+01  4.231213E+01  1.406336E+09
                        (43,34,8)  2.908284E-01  2.659108E-01  5.534014E-02  1.338983E+00
        37 0001-01-01 00:37:00.00  8.560957E-03  4.227967E+01  4.228823E+01  1.405150E+09
                        (43,34,8)  3.075167E-01  2.807905E-01  6.260391E-02  1.413942E+00
+time 20000101.003100   , step     31; iteration    1; sweep 3 grid   1
        38 0001-01-01 00:38:00.00  9.084525E-03  4.225617E+01  4.226525E+01  1.404000E+09
                        (43,34,8)  3.236619E-01  2.954530E-01  7.215719E-02  1.487360E+00
        39 0001-01-01 00:39:00.00  9.657870E-03  4.223332E+01  4.224298E+01  1.402882E+09
                        (43,34,8)  3.394993E-01  3.096483E-01  8.262786E-02  1.559034E+00
        40 0001-01-01 00:40:00.00  1.026307E-02  4.221098E+01  4.222125E+01  1.401792E+09
                        (43,34,8)  3.545402E-01  3.226504E-01  9.092072E-02  1.626038E+00
+time 20000101.003100   , step     31; iteration    1; sweep 4 grid   1
+time 20000101.003200   , step     32; iteration    1; sweep 1 grid   1
+time 20000101.003200   , step     32; iteration    1; sweep 2 grid   1
+time 20000101.003200   , step     32; iteration    1; sweep 3 grid   1
+time 20000101.003200   , step     32; iteration    1; sweep 4 grid   1
+time 20000101.003300   , step     33; iteration    1; sweep 1 grid   1
+time 20000101.003300   , step     33; iteration    1; sweep 2 grid   1
+time 20000101.003300   , step     33; iteration    1; sweep 3 grid   1
+time 20000101.003300   , step     33; iteration    1; sweep 4 grid   1
+time 20000101.003400   , step     34; iteration    1; sweep 1 grid   1
+time 20000101.003400   , step     34; iteration    1; sweep 2 grid   1
+time 20000101.003400   , step     34; iteration    1; sweep 3 grid   1
+time 20000101.003400   , step     34; iteration    1; sweep 4 grid   1
+time 20000101.003500   , step     35; iteration    1; sweep 1 grid   1
+time 20000101.003500   , step     35; iteration    1; sweep 2 grid   1
+time 20000101.003500   , step     35; iteration    1; sweep 3 grid   1
+time 20000101.003500   , step     35; iteration    1; sweep 4 grid   1
+time 20000101.003600   , step     36; iteration    1; sweep 1 grid   1
+time 20000101.003600   , step     36; iteration    1; sweep 2 grid   1
+time 20000101.003600   , step     36; iteration    1; sweep 3 grid   1
+time 20000101.003600   , step     36; iteration    1; sweep 4 grid   1
+time 20000101.003700   , step     37; iteration    1; sweep 1 grid   1
+time 20000101.003700   , step     37; iteration    1; sweep 2 grid   1
+time 20000101.003700   , step     37; iteration    1; sweep 3 grid   1
+time 20000101.003700   , step     37; iteration    1; sweep 4 grid   1
+time 20000101.003800   , step     38; iteration    1; sweep 1 grid   1
+time 20000101.003800   , step     38; iteration    1; sweep 2 grid   1
+time 20000101.003800   , step     38; iteration    1; sweep 3 grid   1
+time 20000101.003800   , step     38; iteration    1; sweep 4 grid   1
+time 20000101.003900   , step     39; iteration    1; sweep 1 grid   1
+time 20000101.003900   , step     39; iteration    1; sweep 2 grid   1
+time 20000101.003900   , step     39; iteration    1; sweep 3 grid   1
+time 20000101.003900   , step     39; iteration    1; sweep 4 grid   1
+time 20000101.004000   , step     40; iteration    1; sweep 1 grid   1
+time 20000101.004000   , step     40; iteration    1; sweep 2 grid   1
+time 20000101.004000   , step     40; iteration    1; sweep 3 grid   1
+time 20000101.004000   , step     40; iteration    1; sweep 4 grid   1
 == SWAN grid  1 sent wave data to ROMS grid  1
 ** ROMS grid  1 recv data from SWAN grid  1
SWANtoROMS Min/Max DISBOT  (Wm-2):     0.000000E+00  8.890843E-04
SWANtoROMS Min/Max DISSURF (Wm-2):     0.000000E+00  0.000000E+00
SWANtoROMS Min/Max DISWCAP (Wm-2):     0.000000E+00  3.410265E-07
SWANtoROMS Min/Max HSIGN   (m):        0.000000E+00  9.979796E-01
SWANtoROMS Min/Max RTP     (s):        0.000000E+00  9.518269E+00
SWANtoROMS Min/Max TMBOT   (s):        0.000000E+00  1.025918E+01
SWANtoROMS Min/Max UBOT    (ms-1):     0.000000E+00  3.742218E-01
SWANtoROMS Min/Max DIR     (deg):      0.000000E+00  6.283184E+00
SWANtoROMS Min/Max WLEN    (m):        1.000000E+00  7.656931E+01
 == SWAN grid  1 recv data from ROMS grid  1
 ** ROMS grid  1 sent data to SWAN grid  1
ROMStoSWAN Min/Max DEPTH   (m):        4.000000E+00  1.552244E+01
ROMStoSWAN Min/Max WLEV    (m):       -4.143108E-01 -0.000000E+00
ROMStoSWAN Min/Max VELX    (ms-1):    -1.091313E+00  1.091289E+00
ROMStoSWAN Min/Max VELY    (ms-1):    -4.204605E-03  1.241402E+00
ROMStoSWAN Min/Max ZO      (m):        5.000000E-02  5.000000E-02
+time 20000101.004100   , step     41; iteration    1; sweep 1 grid   1
        41 0001-01-01 00:41:00.00  1.087927E-02  4.218907E+01  4.219995E+01  1.400725E+09
                        (43,34,8)  3.677590E-01  3.334119E-01  9.607417E-02  1.683595E+00
        42 0001-01-01 00:42:00.00  1.150415E-02  4.216764E+01  4.217914E+01  1.399678E+09
                        (43,34,8)  3.785207E-01  3.419130E-01  8.212613E-02  1.730069E+00
        43 0001-01-01 00:43:00.00  1.214613E-02  4.214656E+01  4.215871E+01  1.398645E+09
                        (43,34,8)  3.877379E-01  3.482180E-01  8.435033E-02  1.767424E+00
+time 20000101.004100   , step     41; iteration    1; sweep 2 grid   1
        44 0001-01-01 00:44:00.00  1.282031E-02  4.212570E+01  4.213852E+01  1.397618E+09
                        (43,34,8)  3.968986E-01  3.541400E-01  8.669074E-02  1.803428E+00
        45 0001-01-01 00:45:00.00  1.352420E-02  4.210527E+01  4.211879E+01  1.396595E+09
                        (33,34,8)  4.069548E-01  3.602079E-01  9.346425E-02  1.841737E+00
        46 0001-01-01 00:46:00.00  1.422096E-02  4.208573E+01  4.209995E+01  1.395576E+09
                        (43,34,8)  4.169006E-01  3.666885E-01  1.039531E-01  1.880685E+00
        47 0001-01-01 00:47:00.00  1.487185E-02  4.206737E+01  4.208224E+01  1.394563E+09
                        (43,34,8)  4.255616E-01  3.728516E-01  1.112558E-01  1.916012E+00
+time 20000101.004100   , step     41; iteration    1; sweep 3 grid   1
        48 0001-01-01 00:48:00.00  1.546528E-02  4.205032E+01  4.206578E+01  1.393552E+09
                        (43,34,8)  4.319028E-01  3.781007E-01  1.127696E-01  1.944000E+00
        49 0001-01-01 00:49:00.00  1.602708E-02  4.203467E+01  4.205070E+01  1.392543E+09
                        (43,34,8)  4.368388E-01  3.822824E-01  1.153157E-01  1.966190E+00
+time 20000101.004100   , step     41; iteration    1; sweep 4 grid   1
        50 0001-01-01 00:50:00.00  1.660142E-02  4.202042E+01  4.203702E+01  1.391530E+09
                        (33,34,8)  4.435455E-01  3.865459E-01  1.221137E-01  1.992399E+00
+time 20000101.004200   , step     42; iteration    1; sweep 1 grid   1
+time 20000101.004200   , step     42; iteration    1; sweep 2 grid   1
+time 20000101.004200   , step     42; iteration    1; sweep 3 grid   1
+time 20000101.004200   , step     42; iteration    1; sweep 4 grid   1
+time 20000101.004300   , step     43; iteration    1; sweep 1 grid   1
+time 20000101.004300   , step     43; iteration    1; sweep 2 grid   1
+time 20000101.004300   , step     43; iteration    1; sweep 3 grid   1
+time 20000101.004300   , step     43; iteration    1; sweep 4 grid   1
+time 20000101.004400   , step     44; iteration    1; sweep 1 grid   1
+time 20000101.004400   , step     44; iteration    1; sweep 2 grid   1
+time 20000101.004400   , step     44; iteration    1; sweep 3 grid   1
+time 20000101.004400   , step     44; iteration    1; sweep 4 grid   1
+time 20000101.004500   , step     45; iteration    1; sweep 1 grid   1
+time 20000101.004500   , step     45; iteration    1; sweep 2 grid   1
+time 20000101.004500   , step     45; iteration    1; sweep 3 grid   1
+time 20000101.004500   , step     45; iteration    1; sweep 4 grid   1
+time 20000101.004600   , step     46; iteration    1; sweep 1 grid   1
+time 20000101.004600   , step     46; iteration    1; sweep 2 grid   1
+time 20000101.004600   , step     46; iteration    1; sweep 3 grid   1
+time 20000101.004600   , step     46; iteration    1; sweep 4 grid   1
+time 20000101.004700   , step     47; iteration    1; sweep 1 grid   1
+time 20000101.004700   , step     47; iteration    1; sweep 2 grid   1
+time 20000101.004700   , step     47; iteration    1; sweep 3 grid   1
+time 20000101.004700   , step     47; iteration    1; sweep 4 grid   1
+time 20000101.004800   , step     48; iteration    1; sweep 1 grid   1
+time 20000101.004800   , step     48; iteration    1; sweep 2 grid   1
+time 20000101.004800   , step     48; iteration    1; sweep 3 grid   1
+time 20000101.004800   , step     48; iteration    1; sweep 4 grid   1
+time 20000101.004900   , step     49; iteration    1; sweep 1 grid   1
+time 20000101.004900   , step     49; iteration    1; sweep 2 grid   1
+time 20000101.004900   , step     49; iteration    1; sweep 3 grid   1
+time 20000101.004900   , step     49; iteration    1; sweep 4 grid   1
+time 20000101.005000   , step     50; iteration    1; sweep 1 grid   1
+time 20000101.005000   , step     50; iteration    1; sweep 2 grid   1
+time 20000101.005000   , step     50; iteration    1; sweep 3 grid   1
+time 20000101.005000   , step     50; iteration    1; sweep 4 grid   1
 == SWAN grid  1 sent wave data to ROMS grid  1
 ** ROMS grid  1 recv data from SWAN grid  1
SWANtoROMS Min/Max DISBOT  (Wm-2):     0.000000E+00  1.219633E-03
SWANtoROMS Min/Max DISSURF (Wm-2):     0.000000E+00  5.950398E-10
SWANtoROMS Min/Max DISWCAP (Wm-2):     0.000000E+00  2.651860E-06
SWANtoROMS Min/Max HSIGN   (m):        0.000000E+00  9.979796E-01
SWANtoROMS Min/Max RTP     (s):        0.000000E+00  9.518269E+00
SWANtoROMS Min/Max TMBOT   (s):        0.000000E+00  1.039485E+01
SWANtoROMS Min/Max UBOT    (ms-1):     0.000000E+00  4.168853E-01
SWANtoROMS Min/Max DIR     (deg):      0.000000E+00  6.283174E+00
SWANtoROMS Min/Max WLEN    (m):        1.000000E+00  7.646307E+01
 ** ROMS grid  1 sent data to SWAN grid  1
 == SWAN grid  1 recv data from ROMS grid  1
ROMStoSWAN Min/Max DEPTH   (m):        4.000000E+00  1.552294E+01
ROMStoSWAN Min/Max WLEV    (m):       -4.731405E-01 -0.000000E+00
ROMStoSWAN Min/Max VELX    (ms-1):    -1.368695E+00  1.368649E+00
ROMStoSWAN Min/Max VELY    (ms-1):    -8.463097E-02  1.576248E+00
ROMStoSWAN Min/Max ZO      (m):        5.000000E-02  5.000000E-02
+time 20000101.005100   , step     51; iteration    1; sweep 1 grid   1
        51 0001-01-01 00:51:00.00  1.722135E-02  4.200729E+01  4.202452E+01  1.390506E+09
                        (33,34,8)  4.522091E-01  3.898889E-01  1.262492E-01  2.020367E+00
        52 0001-01-01 00:52:00.00  1.786373E-02  4.199477E+01  4.201264E+01  1.389459E+09
                        (33,34,8)  4.612306E-01  3.933884E-01  1.513108E-01  2.049254E+00
        53 0001-01-01 00:53:00.00  1.845834E-02  4.198186E+01  4.200032E+01  1.388370E+09
                        (33,34,8)  4.679192E-01  3.969502E-01  1.601035E-01  2.072896E+00
+time 20000101.005100   , step     51; iteration    1; sweep 2 grid   1
        54 0001-01-01 00:54:00.00  1.896918E-02  4.196727E+01  4.198624E+01  1.387221E+09
                        (43,34,8)  4.702069E-01  3.978918E-01  1.507029E-01  2.080076E+00
        55 0001-01-01 00:55:00.00  1.943125E-02  4.194989E+01  4.196933E+01  1.385995E+09
                        (43,34,8)  4.679038E-01  3.971131E-01  1.359679E-01  2.072675E+00
        56 0001-01-01 00:56:00.00  1.991752E-02  4.192928E+01  4.194920E+01  1.384688E+09
                        (33,34,8)  4.663701E-01  3.963195E-01  1.295196E-01  2.067345E+00
+time 20000101.005100   , step     51; iteration    1; sweep 3 grid   1
        57 0001-01-01 00:57:00.00  2.050822E-02  4.190575E+01  4.192626E+01  1.383303E+09
                        (33,34,8)  4.707151E-01  3.973096E-01  1.356077E-01  2.079840E+00
        58 0001-01-01 00:58:00.00  2.120704E-02  4.188011E+01  4.190131E+01  1.381851E+09
                        (33,34,8)  4.786632E-01  3.993135E-01  1.531498E-01  2.103232E+00
        59 0001-01-01 00:59:00.00  2.190265E-02  4.185331E+01  4.187521E+01  1.380344E+09
                        (33,34,8)  4.859077E-01  4.023395E-01  1.685582E-01  2.127153E+00
+time 20000101.005100   , step     51; iteration    1; sweep 4 grid   1
        60 0001-01-01 01:00:00.00  2.250317E-02  4.182608E+01  4.184859E+01  1.378791E+09
                        (33,34,8)  4.898873E-01  4.031734E-01  1.681045E-01  2.138373E+00
+time 20000101.005200   , step     52; iteration    1; sweep 1 grid   1
+time 20000101.005200   , step     52; iteration    1; sweep 2 grid   1
+time 20000101.005200   , step     52; iteration    1; sweep 3 grid   1
+time 20000101.005200   , step     52; iteration    1; sweep 4 grid   1
+time 20000101.005300   , step     53; iteration    1; sweep 1 grid   1
+time 20000101.005300   , step     53; iteration    1; sweep 2 grid   1
+time 20000101.005300   , step     53; iteration    1; sweep 3 grid   1
+time 20000101.005300   , step     53; iteration    1; sweep 4 grid   1
+time 20000101.005400   , step     54; iteration    1; sweep 1 grid   1
+time 20000101.005400   , step     54; iteration    1; sweep 2 grid   1
+time 20000101.005400   , step     54; iteration    1; sweep 3 grid   1
+time 20000101.005400   , step     54; iteration    1; sweep 4 grid   1
+time 20000101.005500   , step     55; iteration    1; sweep 1 grid   1
+time 20000101.005500   , step     55; iteration    1; sweep 2 grid   1
+time 20000101.005500   , step     55; iteration    1; sweep 3 grid   1
+time 20000101.005500   , step     55; iteration    1; sweep 4 grid   1
+time 20000101.005600   , step     56; iteration    1; sweep 1 grid   1
+time 20000101.005600   , step     56; iteration    1; sweep 2 grid   1
+time 20000101.005600   , step     56; iteration    1; sweep 3 grid   1
+time 20000101.005600   , step     56; iteration    1; sweep 4 grid   1
+time 20000101.005700   , step     57; iteration    1; sweep 1 grid   1
+time 20000101.005700   , step     57; iteration    1; sweep 2 grid   1
+time 20000101.005700   , step     57; iteration    1; sweep 3 grid   1
+time 20000101.005700   , step     57; iteration    1; sweep 4 grid   1
+time 20000101.005800   , step     58; iteration    1; sweep 1 grid   1
+time 20000101.005800   , step     58; iteration    1; sweep 2 grid   1
+time 20000101.005800   , step     58; iteration    1; sweep 3 grid   1
+time 20000101.005800   , step     58; iteration    1; sweep 4 grid   1
+time 20000101.005900   , step     59; iteration    1; sweep 1 grid   1
+time 20000101.005900   , step     59; iteration    1; sweep 2 grid   1
+time 20000101.005900   , step     59; iteration    1; sweep 3 grid   1
+time 20000101.005900   , step     59; iteration    1; sweep 4 grid   1
+time 20000101.010000   , step     60; iteration    1; sweep 1 grid   1
+time 20000101.010000   , step     60; iteration    1; sweep 2 grid   1
+time 20000101.010000   , step     60; iteration    1; sweep 3 grid   1
+time 20000101.010000   , step     60; iteration    1; sweep 4 grid   1
 ** ROMS grid  1 recv data from SWAN grid  1
 == SWAN grid  1 sent wave data to ROMS grid  1
SWANtoROMS Min/Max DISBOT  (Wm-2):     0.000000E+00  1.576234E-03
SWANtoROMS Min/Max DISSURF (Wm-2):     0.000000E+00  1.319170E-07
SWANtoROMS Min/Max DISWCAP (Wm-2):     0.000000E+00  1.399932E-05
SWANtoROMS Min/Max HSIGN   (m):        0.000000E+00  9.979796E-01
SWANtoROMS Min/Max RTP     (s):        0.000000E+00  9.518269E+00
SWANtoROMS Min/Max TMBOT   (s):        0.000000E+00  1.040691E+01
SWANtoROMS Min/Max UBOT    (ms-1):     0.000000E+00  4.575594E-01
SWANtoROMS Min/Max DIR     (deg):      0.000000E+00  6.283185E+00
SWANtoROMS Min/Max WLEN    (m):        1.000000E+00  7.635912E+01
 ** ROMS grid  1 sent data to SWAN grid  1
 == SWAN grid  1 recv data from ROMS grid  1
ROMStoSWAN Min/Max DEPTH   (m):        4.000000E+00  1.552345E+01
ROMStoSWAN Min/Max WLEV    (m):       -5.429612E-01 -0.000000E+00
ROMStoSWAN Min/Max VELX    (ms-1):    -1.477377E+00  1.477327E+00
ROMStoSWAN Min/Max VELY    (ms-1):    -1.369142E-01  1.713832E+00
ROMStoSWAN Min/Max ZO      (m):        5.000000E-02  5.000000E-02
+time 20000101.010100   , step     61; iteration    1; sweep 1 grid   1
      WRT_HIS     - wrote history     fields (Index=1,1) in record = 0000002
      WRT_AVG     - wrote averaged    fields             in record = 0000001
      WRT_DIAGS   - wrote diagnostics fields             in record = 0000001
        61 0001-01-01 01:01:00.00  2.299020E-02  4.179860E+01  4.182159E+01  1.377194E+09
                        (43,34,8)  4.870691E-01  4.014711E-01  1.466720E-01  2.127327E+00
        62 0001-01-01 01:02:00.00  2.345721E-02  4.177062E+01  4.179408E+01  1.375552E+09
                        (43,34,8)  4.801777E-01  3.982228E-01  1.416427E-01  2.103400E+00
+time 20000101.010100   , step     61; iteration    1; sweep 2 grid   1
        63 0001-01-01 01:03:00.00  2.400232E-02  4.174184E+01  4.176584E+01  1.373859E+09
                        (33,34,8)  4.785437E-01  3.979333E-01  1.388064E-01  2.099025E+00
        64 0001-01-01 01:04:00.00  2.470497E-02  4.171235E+01  4.173705E+01  1.372119E+09
                        (33,34,8)  4.841496E-01  3.982304E-01  1.573783E-01  2.113181E+00
+time 20000101.010100   , step     61; iteration    1; sweep 3 grid   1
        65 0001-01-01 01:05:00.00  2.544621E-02  4.168273E+01  4.170817E+01  1.370338E+09
                        (33,34,8)  4.913078E-01  4.010123E-01  1.753293E-01  2.136462E+00
        66 0001-01-01 01:06:00.00  2.606136E-02  4.165372E+01  4.167978E+01  1.368530E+09
                        (33,34,8)  4.971142E-01  4.031925E-01  1.895721E-01  2.155152E+00
        67 0001-01-01 01:07:00.00  2.646772E-02  4.162564E+01  4.165211E+01  1.366702E+09
                        (43,34,8)  4.980755E-01  4.033904E-01  1.815489E-01  2.157573E+00
+time 20000101.010100   , step     61; iteration    1; sweep 4 grid   1
        68 0001-01-01 01:08:00.00  2.673248E-02  4.159829E+01  4.162502E+01  1.364859E+09
                        (43,34,8)  4.921456E-01  4.018948E-01  1.630637E-01  2.140008E+00
        69 0001-01-01 01:09:00.00  2.698545E-02  4.157124E+01  4.159823E+01  1.363003E+09
                        (43,34,8)  4.856198E-01  4.002294E-01  1.542174E-01  2.120817E+00
        70 0001-01-01 01:10:00.00  2.738371E-02  4.154419E+01  4.157158E+01  1.361134E+09
                        (33,34,8)  4.873028E-01  4.018898E-01  1.602373E-01  2.128908E+00
+time 20000101.010200   , step     62; iteration    1; sweep 1 grid   1
+time 20000101.010200   , step     62; iteration    1; sweep 2 grid   1
+time 20000101.010200   , step     62; iteration    1; sweep 3 grid   1
+time 20000101.010200   , step     62; iteration    1; sweep 4 grid   1
+time 20000101.010300   , step     63; iteration    1; sweep 1 grid   1
+time 20000101.010300   , step     63; iteration    1; sweep 2 grid   1
+time 20000101.010300   , step     63; iteration    1; sweep 3 grid   1
+time 20000101.010300   , step     63; iteration    1; sweep 4 grid   1
+time 20000101.010400   , step     64; iteration    1; sweep 1 grid   1
+time 20000101.010400   , step     64; iteration    1; sweep 2 grid   1
+time 20000101.010400   , step     64; iteration    1; sweep 3 grid   1
+time 20000101.010400   , step     64; iteration    1; sweep 4 grid   1
+time 20000101.010500   , step     65; iteration    1; sweep 1 grid   1
+time 20000101.010500   , step     65; iteration    1; sweep 2 grid   1
+time 20000101.010500   , step     65; iteration    1; sweep 3 grid   1
+time 20000101.010500   , step     65; iteration    1; sweep 4 grid   1
+time 20000101.010600   , step     66; iteration    1; sweep 1 grid   1
+time 20000101.010600   , step     66; iteration    1; sweep 2 grid   1
+time 20000101.010600   , step     66; iteration    1; sweep 3 grid   1
+time 20000101.010600   , step     66; iteration    1; sweep 4 grid   1
+time 20000101.010700   , step     67; iteration    1; sweep 1 grid   1
+time 20000101.010700   , step     67; iteration    1; sweep 2 grid   1
+time 20000101.010700   , step     67; iteration    1; sweep 3 grid   1
+time 20000101.010700   , step     67; iteration    1; sweep 4 grid   1
+time 20000101.010800   , step     68; iteration    1; sweep 1 grid   1
+time 20000101.010800   , step     68; iteration    1; sweep 2 grid   1
+time 20000101.010800   , step     68; iteration    1; sweep 3 grid   1
+time 20000101.010800   , step     68; iteration    1; sweep 4 grid   1
+time 20000101.010900   , step     69; iteration    1; sweep 1 grid   1
+time 20000101.010900   , step     69; iteration    1; sweep 2 grid   1
+time 20000101.010900   , step     69; iteration    1; sweep 3 grid   1
+time 20000101.010900   , step     69; iteration    1; sweep 4 grid   1
+time 20000101.011000   , step     70; iteration    1; sweep 1 grid   1
+time 20000101.011000   , step     70; iteration    1; sweep 2 grid   1
+time 20000101.011000   , step     70; iteration    1; sweep 3 grid   1
+time 20000101.011000   , step     70; iteration    1; sweep 4 grid   1
 ** ROMS grid  1 recv data from SWAN grid  1
 == SWAN grid  1 sent wave data to ROMS grid  1
SWANtoROMS Min/Max DISBOT  (Wm-2):     0.000000E+00  1.848730E-03
SWANtoROMS Min/Max DISSURF (Wm-2):     0.000000E+00  1.809201E-06
SWANtoROMS Min/Max DISWCAP (Wm-2):     0.000000E+00  3.588143E-05
SWANtoROMS Min/Max HSIGN   (m):        0.000000E+00  1.068805E+00
SWANtoROMS Min/Max RTP     (s):        0.000000E+00  9.518269E+00
SWANtoROMS Min/Max TMBOT   (s):        0.000000E+00  1.030020E+01
SWANtoROMS Min/Max UBOT    (ms-1):     0.000000E+00  4.861595E-01
SWANtoROMS Min/Max DIR     (deg):      0.000000E+00  6.283185E+00
SWANtoROMS Min/Max WLEN    (m):        1.000000E+00  7.625835E+01
 == SWAN grid  1 recv data from ROMS grid  1
 ** ROMS grid  1 sent data to SWAN grid  1
ROMStoSWAN Min/Max DEPTH   (m):        4.000000E+00  1.552407E+01
ROMStoSWAN Min/Max WLEV    (m):       -6.206107E-01 -0.000000E+00
ROMStoSWAN Min/Max VELX    (ms-1):    -1.481107E+00  1.481500E+00
ROMStoSWAN Min/Max VELY    (ms-1):    -1.424037E-01  1.713279E+00
ROMStoSWAN Min/Max ZO      (m):        5.000000E-02  5.000000E-02
+time 20000101.011100   , step     71; iteration    1; sweep 1 grid   1
        71 0001-01-01 01:11:00.00  2.791853E-02  4.151723E+01  4.154515E+01  1.359258E+09
                        (33,34,8)  4.962034E-01  4.059215E-01  1.898451E-01  2.159861E+00
        72 0001-01-01 01:12:00.00  2.835976E-02  4.149076E+01  4.151912E+01  1.357385E+09
                        (33,34,8)  5.055839E-01  4.122445E-01  2.324156E-01  2.196896E+00
        73 0001-01-01 01:13:00.00  2.854208E-02  4.146490E+01  4.149344E+01  1.355520E+09
                        (43,34,8)  5.122482E-01  4.155776E-01  2.255665E-01  2.220409E+00
+time 20000101.011100   , step     71; iteration    1; sweep 2 grid   1
        74 0001-01-01 01:14:00.00  2.845499E-02  4.143915E+01  4.146761E+01  1.353665E+09
                        (43,34,8)  5.127861E-01  4.170734E-01  2.148877E-01  2.225160E+00
        75 0001-01-01 01:15:00.00  2.827942E-02  4.141283E+01  4.144111E+01  1.351820E+09
                        (43,34,8)  5.061995E-01  4.152195E-01  1.965992E-01  2.205542E+00
        76 0001-01-01 01:16:00.00  2.822473E-02  4.138550E+01  4.141373E+01  1.349986E+09
                        (43,34,8)  5.025769E-01  4.143790E-01  1.783183E-01  2.195391E+00
        77 0001-01-01 01:17:00.00  2.848881E-02  4.135733E+01  4.138582E+01  1.348169E+09
                        (33,34,8)  5.088611E-01  4.156553E-01  1.823898E-01  2.213779E+00
+time 20000101.011100   , step     71; iteration    1; sweep 3 grid   1
        78 0001-01-01 01:18:00.00  2.886196E-02  4.132928E+01  4.135814E+01  1.346384E+09
                        (33,34,8)  5.199015E-01  4.217054E-01  2.253466E-01  2.254352E+00
        79 0001-01-01 01:19:00.00  2.904683E-02  4.130256E+01  4.133160E+01  1.344648E+09
                        (33,34,8)  5.306556E-01  4.275309E-01  2.571370E-01  2.293663E+00
+time 20000101.011100   , step     71; iteration    1; sweep 4 grid   1
        80 0001-01-01 01:20:00.00  2.890071E-02  4.127791E+01  4.130681E+01  1.342975E+09
                        (43,34,8)  5.370696E-01  4.299358E-01  2.485289E-01  2.314352E+00
+time 20000101.011200   , step     72; iteration    1; sweep 1 grid   1
+time 20000101.011200   , step     72; iteration    1; sweep 2 grid   1
+time 20000101.011200   , step     72; iteration    1; sweep 3 grid   1
+time 20000101.011200   , step     72; iteration    1; sweep 4 grid   1
+time 20000101.011300   , step     73; iteration    1; sweep 1 grid   1
+time 20000101.011300   , step     73; iteration    1; sweep 2 grid   1
+time 20000101.011300   , step     73; iteration    1; sweep 3 grid   1
+time 20000101.011300   , step     73; iteration    1; sweep 4 grid   1
+time 20000101.011400   , step     74; iteration    1; sweep 1 grid   1
+time 20000101.011400   , step     74; iteration    1; sweep 2 grid   1
+time 20000101.011400   , step     74; iteration    1; sweep 3 grid   1
[...]
       698 0001-01-01 11:38:00.00  2.274803E-02  4.425815E+01  4.428089E+01  1.509121E+09
                        (43,34,5)  3.832161E-01  2.918526E-01  1.044380E-01  1.679639E+00
       699 0001-01-01 11:39:00.00  2.300532E-02  4.421963E+01  4.424263E+01  1.507382E+09
                        (43,34,5)  3.841245E-01  2.929317E-01  1.055958E-01  1.684502E+00
+time 20000101.113100   , step    691; iteration    1; sweep 4 grid   1
       700 0001-01-01 11:40:00.00  2.325986E-02  4.418067E+01  4.420393E+01  1.505624E+09
                        (43,34,5)  3.851470E-01  2.941349E-01  1.064229E-01  1.689964E+00
+time 20000101.113200   , step    692; iteration    1; sweep 1 grid   1
+time 20000101.113200   , step    692; iteration    1; sweep 2 grid   1
+time 20000101.113200   , step    692; iteration    1; sweep 3 grid   1
+time 20000101.113200   , step    692; iteration    1; sweep 4 grid   1
+time 20000101.113300   , step    693; iteration    1; sweep 1 grid   1
+time 20000101.113300   , step    693; iteration    1; sweep 2 grid   1
+time 20000101.113300   , step    693; iteration    1; sweep 3 grid   1
+time 20000101.113300   , step    693; iteration    1; sweep 4 grid   1
+time 20000101.113400   , step    694; iteration    1; sweep 1 grid   1
+time 20000101.113400   , step    694; iteration    1; sweep 2 grid   1
+time 20000101.113400   , step    694; iteration    1; sweep 3 grid   1
+time 20000101.113400   , step    694; iteration    1; sweep 4 grid   1
+time 20000101.113500   , step    695; iteration    1; sweep 1 grid   1
+time 20000101.113500   , step    695; iteration    1; sweep 2 grid   1
+time 20000101.113500   , step    695; iteration    1; sweep 3 grid   1
+time 20000101.113500   , step    695; iteration    1; sweep 4 grid   1
+time 20000101.113600   , step    696; iteration    1; sweep 1 grid   1
+time 20000101.113600   , step    696; iteration    1; sweep 2 grid   1
+time 20000101.113600   , step    696; iteration    1; sweep 3 grid   1
+time 20000101.113600   , step    696; iteration    1; sweep 4 grid   1
+time 20000101.113700   , step    697; iteration    1; sweep 1 grid   1
+time 20000101.113700   , step    697; iteration    1; sweep 2 grid   1
+time 20000101.113700   , step    697; iteration    1; sweep 3 grid   1
+time 20000101.113700   , step    697; iteration    1; sweep 4 grid   1
+time 20000101.113800   , step    698; iteration    1; sweep 1 grid   1
+time 20000101.113800   , step    698; iteration    1; sweep 2 grid   1
+time 20000101.113800   , step    698; iteration    1; sweep 3 grid   1
+time 20000101.113800   , step    698; iteration    1; sweep 4 grid   1
+time 20000101.113900   , step    699; iteration    1; sweep 1 grid   1
+time 20000101.113900   , step    699; iteration    1; sweep 2 grid   1
+time 20000101.113900   , step    699; iteration    1; sweep 3 grid   1
+time 20000101.113900   , step    699; iteration    1; sweep 4 grid   1
+time 20000101.114000   , step    700; iteration    1; sweep 1 grid   1
+time 20000101.114000   , step    700; iteration    1; sweep 2 grid   1
+time 20000101.114000   , step    700; iteration    1; sweep 3 grid   1
+time 20000101.114000   , step    700; iteration    1; sweep 4 grid   1
 == SWAN grid  1 sent wave data to ROMS grid  1
 ** ROMS grid  1 recv data from SWAN grid  1
SWANtoROMS Min/Max DISBOT  (Wm-2):     0.000000E+00  1.233610E-03
SWANtoROMS Min/Max DISSURF (Wm-2):     0.000000E+00  0.000000E+00
SWANtoROMS Min/Max DISWCAP (Wm-2):     0.000000E+00  2.386972E-05
SWANtoROMS Min/Max HSIGN   (m):        0.000000E+00  1.109832E+00
SWANtoROMS Min/Max RTP     (s):        0.000000E+00  9.518269E+00
SWANtoROMS Min/Max TMBOT   (s):        0.000000E+00  9.931297E+00
SWANtoROMS Min/Max UBOT    (ms-1):     0.000000E+00  4.216935E-01
SWANtoROMS Min/Max DIR     (deg):      0.000000E+00  6.283185E+00
SWANtoROMS Min/Max WLEN    (m):        1.000000E+00  7.721281E+01
 == SWAN grid  1 recv data from ROMS grid  1
 ** ROMS grid  1 sent data to SWAN grid  1
ROMStoSWAN Min/Max DEPTH   (m):        3.899240E+00  1.551979E+01
ROMStoSWAN Min/Max WLEV    (m):        0.000000E+00  3.946065E-01
ROMStoSWAN Min/Max VELX    (ms-1):    -1.276657E+00  1.276700E+00
ROMStoSWAN Min/Max VELY    (ms-1):    -1.025196E-01  1.355000E+00
ROMStoSWAN Min/Max ZO      (m):        5.000000E-02  5.000000E-02
+time 20000101.114100   , step    701; iteration    1; sweep 1 grid   1
       701 0001-01-01 11:41:00.00  2.350712E-02  4.414136E+01  4.416487E+01  1.503848E+09
                        (43,34,5)  3.862704E-01  2.954626E-01  1.072096E-01  1.695995E+00
       702 0001-01-01 11:42:00.00  2.374941E-02  4.410184E+01  4.412559E+01  1.502059E+09
                        (43,34,5)  3.875205E-01  2.969331E-01  1.085161E-01  1.702654E+00
       703 0001-01-01 11:43:00.00  2.398525E-02  4.406224E+01  4.408622E+01  1.500261E+09
                        (43,34,5)  3.888901E-01  2.985026E-01  1.093836E-01  1.709863E+00
+time 20000101.114100   , step    701; iteration    1; sweep 2 grid   1
       704 0001-01-01 11:44:00.00  2.421362E-02  4.402269E+01  4.404690E+01  1.498457E+09
                        (43,34,5)  3.904604E-01  3.002607E-01  1.106458E-01  1.718021E+00
       705 0001-01-01 11:45:00.00  2.443394E-02  4.398331E+01  4.400775E+01  1.496650E+09
                        (43,34,5)  3.922220E-01  3.021957E-01  1.120286E-01  1.727090E+00
       706 0001-01-01 11:46:00.00  2.464613E-02  4.394422E+01  4.396886E+01  1.494844E+09
                        (43,34,5)  3.941934E-01  3.043223E-01  1.136044E-01  1.737147E+00
       707 0001-01-01 11:47:00.00  2.485040E-02  4.390551E+01  4.393036E+01  1.493041E+09
                        (43,34,5)  3.962664E-01  3.064785E-01  1.149996E-01  1.747549E+00
+time 20000101.114100   , step    701; iteration    1; sweep 3 grid   1
       708 0001-01-01 11:48:00.00  2.504721E-02  4.386729E+01  4.389234E+01  1.491247E+09
                        (43,34,5)  3.984730E-01  3.087693E-01  1.161606E-01  1.758591E+00
       709 0001-01-01 11:49:00.00  2.523716E-02  4.382963E+01  4.385487E+01  1.489462E+09
                        (43,34,5)  4.008723E-01  3.112310E-01  1.180560E-01  1.770512E+00
+time 20000101.114100   , step    701; iteration    1; sweep 4 grid   1
       710 0001-01-01 11:50:00.00  2.542099E-02  4.379254E+01  4.381796E+01  1.487690E+09
                        (43,34,5)  4.034127E-01  3.137820E-01  1.196999E-01  1.783033E+00
+time 20000101.114200   , step    702; iteration    1; sweep 1 grid   1
+time 20000101.114200   , step    702; iteration    1; sweep 2 grid   1
+time 20000101.114200   , step    702; iteration    1; sweep 3 grid   1
+time 20000101.114200   , step    702; iteration    1; sweep 4 grid   1
+time 20000101.114300   , step    703; iteration    1; sweep 1 grid   1
+time 20000101.114300   , step    703; iteration    1; sweep 2 grid   1
+time 20000101.114300   , step    703; iteration    1; sweep 3 grid   1
+time 20000101.114300   , step    703; iteration    1; sweep 4 grid   1
+time 20000101.114400   , step    704; iteration    1; sweep 1 grid   1
+time 20000101.114400   , step    704; iteration    1; sweep 2 grid   1
+time 20000101.114400   , step    704; iteration    1; sweep 3 grid   1
+time 20000101.114400   , step    704; iteration    1; sweep 4 grid   1
+time 20000101.114500   , step    705; iteration    1; sweep 1 grid   1
+time 20000101.114500   , step    705; iteration    1; sweep 2 grid   1
+time 20000101.114500   , step    705; iteration    1; sweep 3 grid   1
+time 20000101.114500   , step    705; iteration    1; sweep 4 grid   1
+time 20000101.114600   , step    706; iteration    1; sweep 1 grid   1
+time 20000101.114600   , step    706; iteration    1; sweep 2 grid   1
+time 20000101.114600   , step    706; iteration    1; sweep 3 grid   1
+time 20000101.114600   , step    706; iteration    1; sweep 4 grid   1
+time 20000101.114700   , step    707; iteration    1; sweep 1 grid   1
+time 20000101.114700   , step    707; iteration    1; sweep 2 grid   1
+time 20000101.114700   , step    707; iteration    1; sweep 3 grid   1
+time 20000101.114700   , step    707; iteration    1; sweep 4 grid   1
+time 20000101.114800   , step    708; iteration    1; sweep 1 grid   1
+time 20000101.114800   , step    708; iteration    1; sweep 2 grid   1
+time 20000101.114800   , step    708; iteration    1; sweep 3 grid   1
+time 20000101.114800   , step    708; iteration    1; sweep 4 grid   1
+time 20000101.114900   , step    709; iteration    1; sweep 1 grid   1
+time 20000101.114900   , step    709; iteration    1; sweep 2 grid   1
+time 20000101.114900   , step    709; iteration    1; sweep 3 grid   1
+time 20000101.114900   , step    709; iteration    1; sweep 4 grid   1
+time 20000101.115000   , step    710; iteration    1; sweep 1 grid   1
+time 20000101.115000   , step    710; iteration    1; sweep 2 grid   1
+time 20000101.115000   , step    710; iteration    1; sweep 3 grid   1
+time 20000101.115000   , step    710; iteration    1; sweep 4 grid   1
 ** ROMS grid  1 recv data from SWAN grid  1
 == SWAN grid  1 sent wave data to ROMS grid  1
SWANtoROMS Min/Max DISBOT  (Wm-2):     0.000000E+00  1.281964E-03
SWANtoROMS Min/Max DISSURF (Wm-2):     0.000000E+00  1.357721E-10
SWANtoROMS Min/Max DISWCAP (Wm-2):     0.000000E+00  2.873201E-05
SWANtoROMS Min/Max HSIGN   (m):        0.000000E+00  1.129168E+00
SWANtoROMS Min/Max RTP     (s):        0.000000E+00  9.518269E+00
SWANtoROMS Min/Max TMBOT   (s):        0.000000E+00  9.917829E+00
SWANtoROMS Min/Max UBOT    (ms-1):     0.000000E+00  4.291655E-01
SWANtoROMS Min/Max DIR     (deg):      0.000000E+00  6.283185E+00
SWANtoROMS Min/Max WLEN    (m):        1.000000E+00  7.710858E+01
 ** ROMS grid  1 sent data to SWAN grid  1
 == SWAN grid  1 recv data from ROMS grid  1
ROMStoSWAN Min/Max DEPTH   (m):        3.898976E+00  1.551989E+01
ROMStoSWAN Min/Max WLEV    (m):        0.000000E+00  3.277180E-01
ROMStoSWAN Min/Max VELX    (ms-1):    -1.335505E+00  1.335496E+00
ROMStoSWAN Min/Max VELY    (ms-1):    -8.882217E-02  1.406595E+00
ROMStoSWAN Min/Max ZO      (m):        5.000000E-02  5.000000E-02
+time 20000101.115100   , step    711; iteration    1; sweep 1 grid   1
       711 0001-01-01 11:51:00.00  2.559644E-02  4.375600E+01  4.378160E+01  1.485930E+09
                        (43,34,5)  4.060329E-01  3.163977E-01  1.211378E-01  1.795994E+00
       712 0001-01-01 11:52:00.00  2.576839E-02  4.372001E+01  4.374578E+01  1.484186E+09
                        (43,34,5)  4.087755E-01  3.190701E-01  1.233927E-01  1.809421E+00
       713 0001-01-01 11:53:00.00  2.593753E-02  4.368455E+01  4.371049E+01  1.482458E+09
                        (43,34,5)  4.114582E-01  3.216531E-01  1.250118E-01  1.822536E+00
+time 20000101.115100   , step    711; iteration    1; sweep 2 grid   1
       714 0001-01-01 11:54:00.00  2.610468E-02  4.364963E+01  4.367574E+01  1.480747E+09
                        (43,34,5)  4.141588E-01  3.242374E-01  1.262984E-01  1.835708E+00
       715 0001-01-01 11:55:00.00  2.627066E-02  4.361525E+01  4.364152E+01  1.479053E+09
                        (43,34,5)  4.169025E-01  3.268315E-01  1.282608E-01  1.848964E+00
       716 0001-01-01 11:56:00.00  2.643634E-02  4.358139E+01  4.360782E+01  1.477377E+09
                        (43,34,5)  4.196377E-01  3.293705E-01  1.298753E-01  1.862028E+00
+time 20000101.115100   , step    711; iteration    1; sweep 3 grid   1
       717 0001-01-01 11:57:00.00  2.660231E-02  4.354810E+01  4.357470E+01  1.475719E+09
                        (43,34,5)  4.222730E-01  3.317147E-01  1.313233E-01  1.874363E+00
       718 0001-01-01 11:58:00.00  2.676883E-02  4.351547E+01  4.354224E+01  1.474080E+09
                        (43,34,5)  4.247464E-01  3.338754E-01  1.323774E-01  1.885857E+00
       719 0001-01-01 11:59:00.00  2.693591E-02  4.348356E+01  4.351050E+01  1.472462E+09
                        (43,34,5)  4.270836E-01  3.359174E-01  1.337686E-01  1.896738E+00
+time 20000101.115100   , step    711; iteration    1; sweep 4 grid   1
       720 0001-01-01 12:00:00.00  2.710336E-02  4.345236E+01  4.347947E+01  1.470863E+09
                        (43,34,5)  4.292401E-01  3.377759E-01  1.350579E-01  1.906770E+00
+time 20000101.115200   , step    712; iteration    1; sweep 1 grid   1
+time 20000101.115200   , step    712; iteration    1; sweep 2 grid   1
+time 20000101.115200   , step    712; iteration    1; sweep 3 grid   1
+time 20000101.115200   , step    712; iteration    1; sweep 4 grid   1
+time 20000101.115300   , step    713; iteration    1; sweep 1 grid   1
+time 20000101.115300   , step    713; iteration    1; sweep 2 grid   1
+time 20000101.115300   , step    713; iteration    1; sweep 3 grid   1
+time 20000101.115300   , step    713; iteration    1; sweep 4 grid   1
+time 20000101.115400   , step    714; iteration    1; sweep 1 grid   1
+time 20000101.115400   , step    714; iteration    1; sweep 2 grid   1
+time 20000101.115400   , step    714; iteration    1; sweep 3 grid   1
+time 20000101.115400   , step    714; iteration    1; sweep 4 grid   1
+time 20000101.115500   , step    715; iteration    1; sweep 1 grid   1
+time 20000101.115500   , step    715; iteration    1; sweep 2 grid   1
+time 20000101.115500   , step    715; iteration    1; sweep 3 grid   1
+time 20000101.115500   , step    715; iteration    1; sweep 4 grid   1
+time 20000101.115600   , step    716; iteration    1; sweep 1 grid   1
+time 20000101.115600   , step    716; iteration    1; sweep 2 grid   1
+time 20000101.115600   , step    716; iteration    1; sweep 3 grid   1
+time 20000101.115600   , step    716; iteration    1; sweep 4 grid   1
+time 20000101.115700   , step    717; iteration    1; sweep 1 grid   1
+time 20000101.115700   , step    717; iteration    1; sweep 2 grid   1
+time 20000101.115700   , step    717; iteration    1; sweep 3 grid   1
+time 20000101.115700   , step    717; iteration    1; sweep 4 grid   1
+time 20000101.115800   , step    718; iteration    1; sweep 1 grid   1
+time 20000101.115800   , step    718; iteration    1; sweep 2 grid   1
+time 20000101.115800   , step    718; iteration    1; sweep 3 grid   1
+time 20000101.115800   , step    718; iteration    1; sweep 4 grid   1
+time 20000101.115900   , step    719; iteration    1; sweep 1 grid   1
+time 20000101.115900   , step    719; iteration    1; sweep 2 grid   1
+time 20000101.115900   , step    719; iteration    1; sweep 3 grid   1
+time 20000101.115900   , step    719; iteration    1; sweep 4 grid   1
+time 20000101.120000   , step    720; iteration    1; sweep 1 grid   1
+time 20000101.120000   , step    720; iteration    1; sweep 2 grid   1
+time 20000101.120000   , step    720; iteration    1; sweep 3 grid   1
+time 20000101.120000   , step    720; iteration    1; sweep 4 grid   1
 ** ROMS grid  1 recv data from SWAN grid  1
 == SWAN grid  1 sent wave data to ROMS grid  1
SWANtoROMS Min/Max DISBOT  (Wm-2):     0.000000E+00  1.335960E-03
SWANtoROMS Min/Max DISSURF (Wm-2):     0.000000E+00  4.015690E-10
SWANtoROMS Min/Max DISWCAP (Wm-2):     0.000000E+00  3.321663E-05
SWANtoROMS Min/Max HSIGN   (m):        0.000000E+00  1.145589E+00
SWANtoROMS Min/Max RTP     (s):        0.000000E+00  9.518269E+00
SWANtoROMS Min/Max TMBOT   (s):        0.000000E+00  9.934528E+00
SWANtoROMS Min/Max UBOT    (ms-1):     0.000000E+00  4.356968E-01
SWANtoROMS Min/Max DIR     (deg):      0.000000E+00  6.283185E+00
SWANtoROMS Min/Max WLEN    (m):        1.000000E+00  7.700179E+01
 == SWAN grid  1 recv data from ROMS grid  1
ROMStoSWAN Min/Max DEPTH   (m):        3.898881E+00  1.551996E+01
 ** ROMS grid  1 sent data to SWAN grid  1
ROMStoSWAN Min/Max WLEV    (m):       -5.163925E-02  2.530129E-01
ROMStoSWAN Min/Max VELX    (ms-1):    -1.420215E+00  1.420163E+00
ROMStoSWAN Min/Max VELY    (ms-1):    -8.938720E-02  1.491228E+00
ROMStoSWAN Min/Max ZO      (m):        5.000000E-02  5.000000E-02
      WRT_HIS     - wrote history     fields (Index=1,1) in record = 0000013
      WRT_AVG     - wrote averaged    fields             in record = 0000012
      WRT_DIAGS   - wrote diagnostics fields             in record = 0000012
      WRT_RST     - wrote re-start    fields (Index=1,1) in record = 0000001

 Elapsed CPU time (seconds):

 Node   #  0 CPU:    1081.810
 Total:              1081.810

 Nonlinear model elapsed CPU time profile, Grid: 01

  Allocation and array initialization ..............         0.025  ( 0.0023 %)
  Ocean state initialization .......................         0.564  ( 0.0522 %)
  Reading of input data ............................         0.001  ( 0.0001 %)
  Processing of input data .........................         0.023  ( 0.0021 %)
  Processing of output time averaged data ..........         1.404  ( 0.1298 %)
  Computation of vertical boundary conditions ......         0.001  ( 0.0001 %)
  Computation of global information integrals ......         0.409  ( 0.0378 %)
  Writing of output data ...........................         0.660  ( 0.0610 %)
  Model 2D kernel ..................................        39.347  ( 3.6372 %)
  2D/3D coupling, vertical metrics .................         0.219  ( 0.0203 %)
  Omega vertical velocity ..........................         0.271  ( 0.0250 %)
  Equation of state for seawater ...................         0.142  ( 0.0132 %)
  Sediment transport module, source/sink terms .....         0.812  ( 0.0751 %)
  GLS vertical mixing parameterization .............        10.234  ( 0.9460 %)
  3D equations right-side terms ....................         9.175  ( 0.8482 %)
  3D equations predictor step ......................         2.911  ( 0.2691 %)
  Pressure gradient ................................         0.631  ( 0.0583 %)
  Harmonic stress tensor, S-surfaces ...............         0.616  ( 0.0569 %)
  Corrector time-step for 3D momentum ..............         3.675  ( 0.3397 %)
  Corrector time-step for tracers ..................        12.667  ( 1.1709 %)
  Bottom boundary layer module .....................         4.027  ( 0.3722 %)
  Unused 03 ........................................       994.144  (91.8964 %)
                                              Total:      1081.959  100.0138

 Nonlinear model message Passage profile, Grid: 01

  Message Passage: 2D halo exchanges ...............         0.212  ( 0.0196 %)
  Message Passage: 3D halo exchanges ...............         0.019  ( 0.0017 %)
  Message Passage: 4D halo exchanges ...............         0.008  ( 0.0008 %)
  Message Passage: data broadcast ..................         0.038  ( 0.0035 %)
  Message Passage: data reduction ..................         0.007  ( 0.0007 %)
  Message Passage: data gathering ..................         0.038  ( 0.0035 %)
  Message Passage: data scattering..................         0.000  ( 0.0000 %)
  Message Passage: point data gathering ............         0.063  ( 0.0058 %)
  Message Passage: synchronization barrier .........         0.000  ( 0.0000 %)
                                              Total:         0.385    0.0356

  Unique code regions profiled .....................      1081.959  100.0138 %
  Residual, non-profiled code ......................        -0.149   -0.0138 %


 All percentages are with respect to total time =         1081.810


 ROMS/TOMS - Output NetCDF summary for Grid 01:
             number of time records written in HISTORY file = 00000013
             number of time records written in RESTART file = 00000001
             number of time records written in AVERAGE file = 00000012
             number of time records written in STATION file = 00000721

 Analytical header files used:

     ROMS/Functionals/ana_btflux.h
     /home/hadfield/ROMS/COAWST/Projects/Inlet_test/Coupled/ana_fsobc.h
     ROMS/Functionals/ana_initial.h
     ROMS/Functionals/ana_m2obc.h
     /home/hadfield/ROMS/COAWST/Projects/Inlet_test/Coupled/ana_sediment.h
     ROMS/Functionals/ana_smflux.h
     ROMS/Functionals/ana_stflux.h

 ROMS/TOMS: DONE... Thursday - August 30, 2018 -  3:46:34 PM
