!
! Multiple model coupling parameters.
!
!==============================================================================
!  Copyright (c) 2005 ROMS/TOMS Group, version 3.0                          ===
!                                                          John C. Warner   ===
!========================================================= Hernan G. Arango ===
!                                                                             !
! Input parameters can be entered in ANY order, provided that the parameter   !
! KEYWORD (usually, upper case) is typed correctly followed by "="  or "=="   !
! symbols. Any comment lines are allowed and must begin with an exclamation   !
! mark (!) in column one.  Comments may  appear to the right of a parameter   !
! specification to improve documentation.  All comments will ignored during   !
! reading.  Blank lines are also allowed and ignored. Continuation lines in   !
! a parameter specification are allowed and must be preceded by a backslash   !
! (\).  In some instances, more than one value is required for a parameter.   !
! If fewer values are provided, the  last value  is assigned for the entire   !
! parameter array.  The multiplication symbol (*),  without blank spaces in   !
! between, is allowed for a parameter specification.  For example, in a two   !
! grids nested application:                                                   !
!                                                                             !
!    AKT_BAK == 2*1.0d-6  2*5.0d-6              ! m2/s                        !
!                                                                             !
! indicates that the first two entries of array AKT_BAK,  in fortran column-  !
! major order, will have the same value of "1.0d-6" for grid 1,  whereas the  !
! next two entries will have the same value of "5.0d-6" for grid 2.           !
!                                                                             !
! In multiple levels of nesting and/or multiple connected domains  step-ups,  !
! "Ngrids" entries are expected for some of these parameters.  In such case,  !
! the order of the entries for a parameter is extremely important.  It  must  !
! follow the same order (1:Ngrids) as in the state variable declaration. The  !
! USER may follow the above guidelines for specifying his/her values.  These  !
! parameters are marked by "==" plural symbol after the KEYWORD.              !
!                                                                             !
!==============================================================================
!
! Number of parallel nodes assigned to each model in the coupled system.
! Their sum must be equal to the total number of processors.

   NnodesATM =  1                   ! atmospheric model
   NnodesWAV =  1                   ! wave model
   NnodesOCN =  1                   ! ocean model
   NnodesHYD =  0                   ! hydrology model

! Time interval (seconds) between coupling of models.

  TI_ATM2WAV =   900.0d0              ! atmosphere to wave coupling interval
  TI_ATM2OCN =   900.0d0              ! atmosphere to ocean coupling interval
  TI_WAV2ATM =   900.0d0              ! wave to atmosphere coupling interval
  TI_WAV2OCN =   900.0d0              ! wave to ocean coupling interval
  TI_OCN2WAV =   900.0d0              ! ocean to wave coupling interval
  TI_OCN2ATM =   900.0d0              ! ocean to atmosphere coupling interval
  TI_OCN2HYD =     0.0d0              ! ocean to hydro coupling interval
  TI_HYD2OCN =     0.0d0              ! hydro to ocean coupling interval

! Enter names of ATM, WAV, OCN, and SCRIP input files.
!
! 1) uncomment this next line for WRF. The namelist.input should be
!    in the same location as coawstM.
  ATM_name = namelist.input
!
! 2) uncomment these next lines for SWAN. 
!    if swan has nesting, then use the backslash symbol to make a new line for each grid.
!  WAV_name = Projects/Sandy/SWAN/swan_sandy.in \
!             Projects/Sandy/SWAN/swan_sandy_child1.in \
!             Projects/Sandy/SWAN/swan_sandy_child2.in
!
! uncomment this next line for WW3 no NESTING.
! WAV_name = ww3_grid.inp
!
! uncomment this next line for WW3 yes NESTING.
  WAV_name = ww3_multi.inp
!
! 3) uncomment this next line for ROMS.
  OCN_name = Projects/Sandy/ROMS/ocean_sandy.in
!
! uncomment this next line for Hydrology model.
! HYD_name = hydro.namelist
!
! Sparse matrix interpolation weights files.
! Required if any model has more than 2 grids (ie nesting), or
! if you have only 1 grid per model but they are different spatial coverage.
! SCRIP_COAWST_NAME = Projects/Sandy/scrip_sandy_wrf_moving_roms_ww3_3grids.nc
  SCRIP_COAWST_NAME = Projects/Sandy/scrip_sandy_wrf_static_roms_ww3_3grids.nc
! SCRIP_COAWST_NAME = Projects/Sandy/scrip_sandy_roms_swan_3grids.nc
! SCRIP_COAWST_NAME = Projects/Sandy/scrip_sandy_roms_ww3_3grids.nc

!
!  GLOSSARY:
!  =========
!
!------------------------------------------------------------------------------
! Number of parallel nodes assigned to each model in the coupled system.
!------------------------------------------------------------------------------
!
! NnodesATM     Number of processes allocated to the atmospheric model.
! NnodesWAV     Number of processes allocated to the wave model.
! NnodesOCN     Number of processes allocated to the ocean model.
!
!------------------------------------------------------------------------------
! Time interval between coupling of models.
!------------------------------------------------------------------------------
!
! It is assumed that the time interval is an integer multiple of the
! individual coupled models in the system.
!
! TI_ATM2WAV   Atmosphere to wave coupling interval (seconds)
! TI_ATM2OCN   Atmosphere to ocean coupling interval(seconds)
! TI_WAV2ATM   Wave to atmosphere coupling interval (seconds)
! TI_WAV2OCN   Wave to ocean coupling interval      (seconds)
! TI_OCN2WAV   Ocean to wave coupling interval      (seconds)
! TI_OCN2ATM   Ocean to atmosphere coupling interval(seconds)
!
!------------------------------------------------------------------------------
! Coupled models standard input file names.
!------------------------------------------------------------------------------
!
! ATM_name     Atmospheric model standand input.
! WAV_name     Wave model standard input.
! OCN_name     Ocean model standard input.
!
!------------------------------------------------------------------------------
! Sparse matrix interpolation weights files.
!------------------------------------------------------------------------------
!
! SCRIP_COAWST_NAME   name of the file containing interpolation weights.
!
