# svn $Id: CMakeLists.txt 1054 2021-03-06 19:47:12Z arango $
#:::::::::::::::::::::::::::::::::::::::::::::::::::::: David Robertson :::
# Copyright (c) 2002-2021 The ROMS/TOMS Group                           :::
#   Licensed under a MIT/X style license                                :::
#   See License_ROMS.txt                                                :::
#::::::::::::::::::::::::::::::::::::::::::::::::::::::::::::::::::::::::::
#
# Source code list for sub-directory "ROMS/Utility"

list( APPEND _files
      ROMS/Utility/abort.F
      ROMS/Utility/ADfromTL.F
      ROMS/Utility/array_modes.F
      ROMS/Utility/back_cost.F
      ROMS/Utility/cgradient.F
      ROMS/Utility/checkadj.F
      ROMS/Utility/checkdefs.F
      ROMS/Utility/checkerror.F
      ROMS/Utility/check_multifile.F
      ROMS/Utility/checkvars.F
      ROMS/Utility/close_io.F
      ROMS/Utility/comp_Jb0.F
      ROMS/Utility/congrad.F
      ROMS/Utility/convolve.F
      ROMS/Utility/cost_grad.F
      ROMS/Utility/dateclock.F
      ROMS/Utility/def_avg.F
      ROMS/Utility/def_dai.F
      ROMS/Utility/def_diags.F
      ROMS/Utility/def_dim.F
      ROMS/Utility/def_error.F
      ROMS/Utility/def_floats.F
      ROMS/Utility/def_gst.F
      ROMS/Utility/def_hessian.F
      ROMS/Utility/def_his.F
      ROMS/Utility/def_impulse.F
      ROMS/Utility/def_info.F
      ROMS/Utility/def_ini.F
      ROMS/Utility/def_lanczos.F
      ROMS/Utility/def_mod.F
      ROMS/Utility/def_norm.F
      ROMS/Utility/def_quick.F
      ROMS/Utility/def_rst.F
      ROMS/Utility/def_state.F
      ROMS/Utility/def_station.F
      ROMS/Utility/def_tides.F
      ROMS/Utility/def_var.F
      ROMS/Utility/distribute.F
      ROMS/Utility/dotproduct.F
      ROMS/Utility/edit_multifile.F
      ROMS/Utility/erf.F
      ROMS/Utility/extract_obs.F
      ROMS/Utility/extract_sta.F
      ROMS/Utility/frc_weak.F
      ROMS/Utility/gasdev.F
      ROMS/Utility/get_2dfld.F
      ROMS/Utility/get_2dfldr.F
      ROMS/Utility/get_3dfld.F
      ROMS/Utility/get_3dfldr.F
      ROMS/Utility/get_bounds.F
      ROMS/Utility/get_cycle.F
      ROMS/Utility/get_grid.F
      ROMS/Utility/get_gst.F
      ROMS/Utility/get_hash.F
      ROMS/Utility/get_ngfld.F
      ROMS/Utility/get_ngfldr.F
      ROMS/Utility/get_nudgcoef.F
      ROMS/Utility/get_state.F
      ROMS/Utility/get_varcoords.F
      ROMS/Utility/get_wetdry.F
      ROMS/Utility/grid_coords.F
      ROMS/Utility/ini_adjust.F
      ROMS/Utility/ini_hmixcoef.F
      ROMS/Utility/ini_lanczos.F
      ROMS/Utility/inner2state.F
      ROMS/Utility/inp_decode.F
      ROMS/Utility/inp_par.F
      ROMS/Utility/inquiry.F
      ROMS/Utility/interpolate.F
      ROMS/Utility/lanc_resid.F
      ROMS/Utility/lbc.F
      ROMS/Utility/lubksb.F
      ROMS/Utility/ludcmp.F
      ROMS/Utility/memory.F
      ROMS/Utility/metrics.F
      ROMS/Utility/mp_exchange.F
      ROMS/Utility/mp_routines.F
      ROMS/Utility/nf_fread2d_bry.F
      ROMS/Utility/nf_fread2d.F
      ROMS/Utility/nf_fread3d_bry.F
      ROMS/Utility/nf_fread3d.F
      ROMS/Utility/nf_fread4d.F
      ROMS/Utility/nf_fwrite2d_bry.F
      ROMS/Utility/nf_fwrite2d.F
      ROMS/Utility/nf_fwrite3d_bry.F
      ROMS/Utility/nf_fwrite3d.F
      ROMS/Utility/nf_fwrite4d.F
      ROMS/Utility/normalization.F
      ROMS/Utility/nrutil.F
      ROMS/Utility/ntimestep.F
      ROMS/Utility/obs_cost.F
      ROMS/Utility/obs_depth.F
      ROMS/Utility/obs_initial.F
      ROMS/Utility/obs_k2z.F
      ROMS/Utility/obs_read.F
      ROMS/Utility/obs_write.F
      ROMS/Utility/packing.F
      ROMS/Utility/posterior.F
      ROMS/Utility/posterior_var.F
      ROMS/Utility/ran1.F
      ROMS/Utility/random_ic.F
      ROMS/Utility/ran_state.F
      ROMS/Utility/read_asspar.F
      ROMS/Utility/read_biopar.F
      ROMS/Utility/read_couplepar.F
      ROMS/Utility/read_fltbiopar.F
      ROMS/Utility/read_fltpar.F
      ROMS/Utility/read_phypar.F
      ROMS/Utility/read_sedpar.F
      ROMS/Utility/read_stapar.F
      ROMS/Utility/regrid.F
      ROMS/Utility/rep_matrix.F
      ROMS/Utility/round.F
      ROMS/Utility/rpcg_lanczos.F
      ROMS/Utility/set_2dfld.F
      ROMS/Utility/set_2dfldr.F
      ROMS/Utility/set_3dfld.F
      ROMS/Utility/set_3dfldr.F
      ROMS/Utility/set_contact.F
      ROMS/Utility/set_diags.F
      ROMS/Utility/set_grid.F
      ROMS/Utility/set_masks.F
      ROMS/Utility/set_ngfld.F
      ROMS/Utility/set_ngfldr.F
      ROMS/Utility/set_scoord.F
      ROMS/Utility/set_weights.F
      ROMS/Utility/shapiro.F
      ROMS/Utility/sqlq.F
      ROMS/Utility/state_addition.F
      ROMS/Utility/state_copy.F
      ROMS/Utility/state_dotprod.F
      ROMS/Utility/state_initialize.F
      ROMS/Utility/state_join.F
      ROMS/Utility/state_product.F
      ROMS/Utility/state_read.F
      ROMS/Utility/state_scale.F
      ROMS/Utility/stats.F
      ROMS/Utility/stats_modobs.F
      ROMS/Utility/stdinp_mod.F
      ROMS/Utility/stiffness.F
      ROMS/Utility/strings.F
      ROMS/Utility/sum_grad.F
      ROMS/Utility/sum_imp.F
      ROMS/Utility/tadv.F
      ROMS/Utility/time_corr.F
      ROMS/Utility/timers.F
      ROMS/Utility/uv_rotate.F
      ROMS/Utility/vorticity.F
      ROMS/Utility/white_noise.F
      ROMS/Utility/wpoints.F
      ROMS/Utility/wrt_aug_imp.F
      ROMS/Utility/wrt_avg.F
      ROMS/Utility/wrt_dai.F
      ROMS/Utility/wrt_diags.F
      ROMS/Utility/wrt_error.F
      ROMS/Utility/wrt_evolved.F
      ROMS/Utility/wrt_floats.F
      ROMS/Utility/wrt_gst.F
      ROMS/Utility/wrt_hessian.F
      ROMS/Utility/wrt_his.F
      ROMS/Utility/wrt_impulse.F
      ROMS/Utility/wrt_info.F
      ROMS/Utility/wrt_ini.F
      ROMS/Utility/wrt_quick.F
      ROMS/Utility/wrt_rst.F
      ROMS/Utility/wrt_state.F
      ROMS/Utility/wrt_station.F
      ROMS/Utility/wrt_tides.F
      ROMS/Utility/zeta_balance.F
)

set( ROMS_Utility_files
     ${_files}
     PARENT_SCOPE
)
