# svn $Id: Module.mk 503 2008-01-10 00:11:51Z arango $
#::::::::::::::::::::::::::::::::::::::::::::::::::::: Hernan G. Arango :::
# Copyright (c) 2002-2008 The ROMS/TOMS Group             Kate Hedstrom :::
#   Licensed under a MIT/X style license                                :::
#   See License_ROMS.txt                                                :::
#::::::::::::::::::::::::::::::::::::::::::::::::::::::::::::::::::::::::::

local_sub  := ROMS/Programs

local_src  := $(wildcard $(local_sub)/*.F)
path_srcs  += $(local_src)
