ROMS/TOMS Framework: Jul 31, 2019
===================

Copyright (c) 2002-2019 The ROMS/TOMS Group
  Licensed under a MIT/X style license
  See License_ROMS.txt

svn: $HeadURL: https://www.myroms.org/svn/src/trunk/ROMS/Version $
svn: $LastChangedBy: arango $
svn: $LastChangedRevision: 980 $
svn: $LastChangedDate: 2019-07-31 11:36:21 -0400 (Wed, 31 Jul 2019) $
