ROMS/TOMS Framework: March 26, 2010
===================

Copyright (c) 2002-2010 The ROMS/TOMS Group
  Licensed under a MIT/X style license
  See License_ROMS.txt

svn: $HeadURL: https://www.myroms.org/svn/src/trunk/ROMS/Version $
svn: $LastChangedBy: arango $
svn: $LastChangedRevision: 451 $
svn: $LastChangedDate: 2010-03-04 16:43:03 -0500 (Thu, 04 Mar 2010) $
svn: $Id: Version 451 2010-03-04 21:43:03Z arango $
