ROMS/TOMS Framework: February 6, 2019
===================

Copyright (c) 2002-2019 The ROMS/TOMS Group
  Licensed under a MIT/X style license
  See License_ROMS.txt

svn: $HeadURL: https://www.myroms.org/svn/src/trunk/ROMS/Version $
svn: $LastChangedBy: arango $
svn: $LastChangedRevision: 948 $
svn: $LastChangedDate: 2019-02-06 22:33:28 -0500 (Wed, 06 Feb 2019) $
