ROMS/TOMS Framework:  March 3, 2017
===================

Copyright (c) 2002-2017 The ROMS/TOMS Group
  Licensed under a MIT/X style license
  See License_ROMS.txt

svn: $HeadURL: https://www.myroms.org/svn/src/trunk/ROMS/Version $
svn: $LastChangedBy: arango $
svn: $LastChangedRevision: 838 $
svn: $LastChangedDate: 2017-03-03 22:21:45 -0500 (Fri, 03 Mar 2017) $