ROMS/TOMS Framework: May 9, 2016
===================

Copyright (c) 2002-2016 The ROMS/TOMS Group
  Licensed under a MIT/X style license
  See License_ROMS.txt

svn: $HeadURL: https://www.myroms.org/svn/src/trunk/ROMS/Version $
svn: $LastChangedBy: arango $
svn: $LastChangedRevision: 793 $
svn: $LastChangedDate: 2016-05-09 20:08:25 -0400 (Mon, 09 May 2016) $