ROMS/TOMS Framework:  August 30, 2016
===================

Copyright (c) 2002-2016 The ROMS/TOMS Group
  Licensed under a MIT/X style license
  See License_ROMS.txt

svn: $HeadURL: https://www.myroms.org/svn/src/trunk/ROMS/Version $
svn: $LastChangedBy: arango $
svn: $LastChangedRevision: 820 $
svn: $LastChangedDate: 2016-08-30 16:14:28 -0400 (Tue, 30 Aug 2016) $