ROMS/TOMS Framework: Mar 10, 2020
===================

Copyright (c) 2002-2020 The ROMS/TOMS Group
  Licensed under a MIT/X style license
  See License_ROMS.txt

svn: $HeadURL: https://www.myroms.org/svn/src/trunk/ROMS/Version $
svn: $LastChangedBy: arango $
svn: $LastChangedRevision: 1013 $
svn: $LastChangedDate: 2020-03-10 21:46:00 -0400 (Tue, 10 Mar 2020) $
