ROMS/TOMS Framework: August 19, 2015
===================

Copyright (c) 2002-2015 The ROMS/TOMS Group
  Licensed under a MIT/X style license
  See License_ROMS.txt

svn: $HeadURL: https://www.myroms.org/svn/src/trunk/ROMS/Version $
svn: $LastChangedBy: arango $
svn: $LastChangedRevision: 777 $
svn: $LastChangedDate: 2015-08-19 17:55:50 -0400 (Wed, 19 Aug 2015) $