ROMS/TOMS Framework: July 8, 2016
===================

Copyright (c) 2002-2016 The ROMS/TOMS Group
  Licensed under a MIT/X style license
  See License_ROMS.txt

svn: $HeadURL: https://www.myroms.org/svn/src/trunk/ROMS/Version $
svn: $LastChangedBy: arango $
svn: $LastChangedRevision: 807 $
svn: $LastChangedDate: 2016-07-08 22:03:55 -0400 (Fri, 08 Jul 2016) $