ROMS/TOMS Framework: August 13, 2008
===================

Copyright (c) 2002-2008 The ROMS/TOMS Group
  Licensed under a MIT/X style license
  See License_ROMS.txt

svn: $HeadURL: https://www.myroms.org/svn/omlab/branches/jcwarner/ROMS/Version $
svn: $LastChangedBy: arango $
svn: $LastChangedRevision: 704 $
svn: $LastChangedDate: 2008-08-13 02:20:10 -0400 (Wed, 13 Aug 2008) $
svn: $Id: Version 704 2008-08-13 06:20:10Z arango $
