ROMS/TOMS Framework:  January 25, 2017
===================

Copyright (c) 2002-2017 The ROMS/TOMS Group
  Licensed under a MIT/X style license
  See License_ROMS.txt

svn: $HeadURL: https://www.myroms.org/svn/src/trunk/ROMS/Version $
svn: $LastChangedBy: arango $
svn: $LastChangedRevision: 836 $
svn: $LastChangedDate: 2017-01-25 18:10:16 -0500 (Wed, 25 Jan 2017) $