ROMS/TOMS Framework: December 27, 2017
===================

Copyright (c) 2002-2017 The ROMS/TOMS Group
  Licensed under a MIT/X style license
  See License_ROMS.txt

svn: $HeadURL: https://www.myroms.org/svn/src/trunk/ROMS/Version $
svn: $LastChangedBy: arango $
svn: $LastChangedRevision: 885 $
svn: $LastChangedDate: 2017-12-27 18:18:30 -0500 (Wed, 27 Dec 2017) $