ROMS/TOMS Framework: March 25, 2021
===================

Copyright (c) 2002-2021 The ROMS/TOMS Group
  Licensed under a MIT/X style license
  See License_ROMS.txt

svn: $HeadURL: https://www.myroms.org/svn/src/trunk/ROMS/Version $
svn: $LastChangedBy: arango $
svn: $LastChangedRevision: 1058 $
svn: $LastChangedDate: 2021-03-25 15:04:23 -0400 (Thu, 25 Mar 2021) $

