ROMS/TOMS Framework: May 17, 2018
===================

Copyright (c) 2002-2018 The ROMS/TOMS Group
  Licensed under a MIT/X style license
  See License_ROMS.txt

svn: $HeadURL: https://www.myroms.org/svn/src/trunk/ROMS/Version $
svn: $LastChangedBy: arango $
svn: $LastChangedRevision: 904 $
svn: $LastChangedDate: 2018-05-17 18:40:45 -0400 (Thu, 17 May 2018) $