ROMS/TOMS Framework: July 14, 2016
===================

Copyright (c) 2002-2016 The ROMS/TOMS Group
  Licensed under a MIT/X style license
  See License_ROMS.txt

svn: $HeadURL: https://www.myroms.org/svn/src/trunk/ROMS/Version $
svn: $LastChangedBy: arango $
svn: $LastChangedRevision: 809 $
svn: $LastChangedDate: 2016-07-14 12:38:45 -0400 (Thu, 14 Jul 2016) $