ROMS/TOMS Framework:  February 8, 2023
===================

Copyright (c) 2002-2023 The ROMS/TOMS Group
  Licensed under a MIT/X style license
  See License_ROMS.txt

git: $URL https://www.myroms.org/git/src $
git: $Id$

svn: $HeadURL: https://www.myroms.org/svn/src/trunk/ROMS/Version $
svn: $LastChangedBy: arango $
svn: $LastChangedRevision: 1151 $
svn: $LastChangedDate: 2023-02-08 22:08:53 -0500 (Wed, 08 Feb 2023) $

