# svn $Id: Module.mk 508 2008-01-10 23:26:20Z arango $
#::::::::::::::::::::::::::::::::::::::::::::::::::::: Hernan G. Arango :::
# Copyright (c) 2002-2008 The ROMS/TOMS Group             Kate Hedstrom :::
#   Licensed under a MIT/X style license                                :::
#   See License_ROMS.txt                                                :::
#::::::::::::::::::::::::::::::::::::::::::::::::::::::::::::::::::::::::::

local_sub  := SWAN/Src

local_lib  := libSWAN.a
local_src  := $(wildcard $(local_sub)/*.F)

$(eval $(call make-library,$(local_lib),$(local_src)))

$(eval $(compile-rules))

# swch = -unix -f95 -mpi -impi -timg
# @perl SWAN/switch.pl $(swch) SWAN/*.ftn


